AquaCrop 7.2 (August 2024) - Output created on (date) : 05-12-2024   at (time) : 11:17:57

    RunNr     Day1   Month1    Year1     Rain      ETo       GD     CO2      Irri   Infilt   Runoff    Drain   Upflow        E     E/Ex       Tr      TrW   Tr/Trx    SaltIn   SaltOut    SaltUp  SaltProf     Cycle   SaltStr  FertStr  WeedStr  TempStr   ExpStr   StoStr  BioMass  Brelative   HI    Y(dry)  Y(fresh)    WPet      Bin     Bout     DayN   MonthN    YearN
                                           mm       mm  degC.day    ppm        mm       mm       mm       mm       mm       mm        %       mm       mm        %    ton/ha    ton/ha    ton/ha    ton/ha      days       %        %        %        %        %        %    ton/ha        %       %    ton/ha   ton/ha    kg/m3   ton/ha   ton/ha
   Tot(1)       25        3     2024   1240.9    677.3   2244.7   423.08      0.0   1102.6    138.3    508.0      0.0    498.4       76     77.6     77.6       99     0.000     0.000     0.000     0.000       80        0        0        0        1        2        0     5.100       99     85.0    4.335   43.352     2.37    0.000    0.000       23        3     2025  placename.PRM
