AquaCrop 7.2 (August 2024) - Output created on (date) : 04-12-2024   at (time) : 16:35:41

   Run:   1
   Day Month  Year   DAP Stage   WC(1.20)   Rain     Irri   Surf   Infilt   RO    Drain       CR    Zgwt       Ex       E     E/Ex     Trx       Tr  Tr/Trx    ETx      ET  ET/ETx      GD       Z     StExp  StSto  StSen StSalt StWeed   CC      CCw     StTr  Kc(Tr)     Trx       Tr      TrW  Tr/Trx   WP    Biomass     HI    Y(dry)  Y(fresh)  Brelative    WPet      Bin     Bout  WC(1.20) Wr(0.40)     Z       Wr    Wr(SAT)    Wr(FC)   Wr(exp)   Wr(sto)   Wr(sen)   Wr(PWP)    SaltIn    SaltOut   SaltUp   Salt(1.20)  SaltZ     Z       ECe    ECsw   StSalt  Zgwt    ECgw       WC01       WC 2       WC 3       WC 4       WC 5       WC 6       WC 7       WC 8       WC 9       WC10       WC11       WC12      ECe01      ECe 2      ECe 3      ECe 4      ECe 5      ECe 6      ECe 7      ECe 8      ECe 9      ECe10      ECe11      ECe12     Rain       ETo      Tmin      Tavg      Tmax      CO2
                                      mm      mm       mm     mm     mm     mm       mm       mm      m        mm       mm     %        mm       mm    %        mm      mm       %  degC-day     m       %      %      %      %      %      %       %       %       -        mm       mm       mm    %     g/m2    ton/ha      %    ton/ha   ton/ha       %       kg/m3   ton/ha   ton/ha      mm       mm       m       mm        mm        mm        mm        mm        mm         mm    ton/ha    ton/ha    ton/ha    ton/ha    ton/ha     m      dS/m    dS/m      %     m      dS/m       0.05       0.15       0.25       0.35       0.45       0.55       0.65       0.75       0.85       0.95       1.05       1.15       0.05       0.15       0.25       0.35       0.45       0.55       0.65       0.75       0.85       0.95       1.05       1.15       mm        mm     degC      degC      degC       ppm
    25     3  2024     1     1     358.4     0.0      0.0    0.0    0.0    0.0      0.0      0.0   -9.90      1.7      1.6     92      0.0      0.0   100      1.7     1.6      92      0.0    0.30     -9     -9     -9      0     -9     0.0     0.0      0    -9.00      0.0      0.0      0.0   100     0.0     0.000    -9.9    0.000    0.000      -9        0.00    0.000    0.000     358.4    118.4    0.30    88.4     150.0      90.0      75.0      53.9      39.0      30.0    0.000     0.000     0.000     0.000     0.000    0.30     0.00    0.00      0   -9.90   -9.00       28.4       30.0       30.0       30.0       30.0       30.0       30.0       30.0       30.0       30.0       30.0       30.0        0.0        0.0        0.0        0.0        0.0        0.0        0.0        0.0        0.0        0.0        0.0        0.0      0.0       1.6      -1.9       2.5       6.8    423.08
    26     3  2024     2     1     377.9    27.9      0.0    0.0   21.4    6.5      0.0      0.0   -9.90      1.9      1.9    100      0.0      0.0   100      1.9     1.9     100      0.3    0.30     -9     -9     -9      0     -9     0.0     0.0      0    -9.00      0.0      0.0      0.0   100     0.0     0.000    -9.9    0.000    0.000      -9        0.00    0.000    0.000     377.9    137.9    0.30   107.9     150.0      90.0      75.0      54.2      39.0      30.0    0.000     0.000     0.000     0.000     0.000    0.30     0.00    0.00      0   -9.90   -9.00       47.9       30.0       30.0       30.0       30.0       30.0       30.0       30.0       30.0       30.0       30.0       30.0        0.0        0.0        0.0        0.0        0.0        0.0        0.0        0.0        0.0        0.0        0.0        0.0     27.9       1.7      -1.5       4.3      10.1    423.08
    27     3  2024     3     1     374.7     2.8      0.0    0.0    2.8    0.0      4.0      0.0   -9.90      2.0      2.0    100      0.0      0.0   100      2.0     2.0     100      2.0    0.30     -9      0      0      0      0     1.0     1.0     85     0.02      0.0      0.0      0.0   100    19.3     0.001    64.1    0.000    0.004     100        0.01    0.000    0.000     374.7    131.3    0.30    99.9     150.0      90.0      68.2      54.3      36.2      30.0    0.000     0.000     0.000     0.000     0.000    0.30     0.00    0.00      0   -9.90   -9.00       32.5       34.0       33.4       31.4       31.0       30.6       30.5       30.4       30.3       30.2       30.2       30.2        0.0        0.0        0.0        0.0        0.0        0.0        0.0        0.0        0.0        0.0        0.0        0.0      2.8       1.8       1.5       6.0      10.6    423.08
    28     3  2024     4     2     366.0     0.0      0.0    0.0    0.0    0.0      6.9      0.0   -9.90      1.8      1.8     98      0.0      0.0   100      1.8     1.8      98      0.0    0.30     -9     -9      0      0      0     1.0     1.0    100    -9.00      0.0      0.0      0.0   100    19.3     0.001    64.1    0.000    0.004     100        0.00    0.000    0.000     366.0    122.2    0.30    91.2     150.0      90.0      67.9      54.1      36.1      30.0    0.000     0.000     0.000     0.000     0.000    0.30     0.00    0.00      0   -9.90   -9.00       29.0       31.2       31.0       31.0       30.8       30.7       30.6       30.5       30.4       30.4       30.3       30.3        0.0        0.0        0.0        0.0        0.0        0.0        0.0        0.0        0.0        0.0        0.0        0.0      0.0       1.7       0.6       3.3       6.0    423.08
    29     3  2024     5     2     359.6     0.0      0.0    0.0    0.0    0.0      4.3      0.0   -9.90      2.5      2.0     79      0.0      0.0   100      2.6     2.0      79      4.2    0.30     -9      0      0      0      0     1.1     1.1     33     0.02      0.0      0.0      0.0   100    19.3     0.003    81.3    0.003    0.025     100        0.03    0.000    0.000     359.6    117.9    0.30    87.6     150.0      90.0      69.4      55.3      36.6      30.0    0.000     0.000     0.000     0.000     0.000    0.30     0.00    0.00      0   -9.90   -9.00       26.9       30.4       30.3       30.3       30.2       30.2       30.2       30.2       30.2       30.2       30.2       30.2        0.0        0.0        0.0        0.0        0.0        0.0        0.0        0.0        0.0        0.0        0.0        0.0      0.0       2.4       3.4       8.2      12.9    423.08
    30     3  2024     6     2     378.1    27.3      0.0    0.0   21.7    5.6      1.8      0.0   -9.90      1.5      1.5    100      0.0      0.0   100      1.5     1.5     100      2.8    0.30     -9      0      0      0      0     1.1     1.1     71     0.02      0.0      0.0      0.0   100    19.3     0.004    82.3    0.004    0.035     100        0.03    0.000    0.000     378.1    137.5    0.30   107.4     150.0      90.0      67.2      53.5      35.8      30.0    0.000     0.000     0.000     0.000     0.000    0.30     0.00    0.00      0   -9.90   -9.00       47.2       30.1       30.1       30.1       30.1       30.1       30.1       30.1       30.1       30.1       30.1       30.1        0.0        0.0        0.0        0.0        0.0        0.0        0.0        0.0        0.0        0.0        0.0        0.0     27.3       1.4       1.9       6.8      11.6    423.08
    31     3  2024     7     2     372.5     0.0      0.0    0.0    0.0    0.0      4.4      0.0   -9.90      1.3      1.3    100      0.0      0.0   100      1.3     1.3     100      0.0    0.30     -9     -9      0      0      0     1.1     1.1    100    -9.00      0.0      0.0      0.0   100    19.3     0.004    82.3    0.004    0.035     100        0.03    0.000    0.000     372.5    129.5    0.30    98.4     150.0      90.0      66.9      53.2      35.6      30.0    0.000     0.000     0.000     0.000     0.000    0.30     0.00    0.00      0   -9.90   -9.00       33.0       33.5       31.9       31.1       30.7       30.5       30.4       30.3       30.3       30.2       30.2       30.2        0.0        0.0        0.0        0.0        0.0        0.0        0.0        0.0        0.0        0.0        0.0        0.0      0.0       1.2       0.0       1.4       2.9    423.08
     1     4  2024     8     2     365.0     0.0      0.0    0.0    0.0    0.0      5.6      0.0   -9.90      1.8      1.8    100      0.0      0.0   100      1.8     1.8     100      0.0    0.30     -9     -9      0      0      0     1.1     1.1    100    -9.00      0.0      0.0      0.0   100    19.3     0.004    82.3    0.004    0.035     100        0.03    0.000    0.000     365.0    121.9    0.30    91.1     150.0      90.0      68.0      54.2      36.1      30.0    0.000     0.000     0.000     0.000     0.000    0.30     0.00    0.00      0   -9.90   -9.00       29.1       31.0       31.0       30.8       30.6       30.5       30.4       30.4       30.3       30.3       30.3       30.2        0.0        0.0        0.0        0.0        0.0        0.0        0.0        0.0        0.0        0.0        0.0        0.0      0.0       1.7      -1.6       1.4       4.4    423.08
     2     4  2024     9     2     361.4     0.7      0.0    0.0    0.7    0.0      3.6      0.0   -9.90      0.7      0.7    100      0.0      0.0   100      0.7     0.7     100      0.0    0.30     -9     -9      0      0      0     1.1     1.1    100    -9.00      0.0      0.0      0.0   100    19.3     0.004    82.3    0.004    0.035     100        0.02    0.000    0.000     361.4    119.9    0.30    89.7     150.0      90.0      65.7      52.3      35.1      30.0    0.000     0.000     0.000     0.000     0.000    0.30     0.00    0.00      0   -9.90   -9.00       29.1       30.3       30.3       30.2       30.2       30.2       30.2       30.2       30.2       30.2       30.2       30.1        0.0        0.0        0.0        0.0        0.0        0.0        0.0        0.0        0.0        0.0        0.0        0.0      0.7       0.7      -0.7       0.5       1.6    423.08
     3     4  2024    10     2     361.8     3.3      0.0    0.0    3.3    0.0      1.5      0.0   -9.90      1.4      1.4    100      0.0      0.0   100      1.4     1.4     100      0.5    0.30     -9      0      0      0      0     1.1     1.1     99     0.02      0.0      0.0      0.0   100    19.3     0.004    82.4    0.004    0.036     100        0.02    0.000    0.000     361.8    121.2    0.30    91.2     150.0      90.0      67.1      53.4      35.7      30.0    0.000     0.000     0.000     0.000     0.000    0.30     0.00    0.00      0   -9.90   -9.00       31.0       30.1       30.1       30.1       30.1       30.1       30.1       30.1       30.1       30.1       30.1       30.1        0.0        0.0        0.0        0.0        0.0        0.0        0.0        0.0        0.0        0.0        0.0        0.0      3.3       1.3       1.2       4.5       7.7    423.08
     4     4  2024    11     2     358.9     0.0      0.0    0.0    0.0    0.0      0.7      0.0   -9.90      2.1      2.1    100      0.0      0.0   100      2.1     2.1     100      2.5    0.30     -9      0      0      0      0     1.2     1.2     75     0.02      0.0      0.0      0.0   100    19.3     0.005    82.9    0.004    0.045     100        0.02    0.000    0.000     358.9    118.6    0.30    88.5     150.0      90.0      68.5      54.6      36.3      30.0    0.000     0.000     0.000     0.000     0.000    0.30     0.00    0.00      0   -9.90   -9.00       28.2       30.2       30.1       30.1       30.1       30.0       30.0       30.0       30.0       30.0       30.0       30.0        0.0        0.0        0.0        0.0        0.0        0.0        0.0        0.0        0.0        0.0        0.0        0.0      0.0       2.0       2.0       6.5      11.1    423.08
     5     4  2024    12     2     355.8     0.0      0.0    0.0    0.0    0.0      0.4      0.0   -9.90      3.1      2.6     85      0.1      0.1   100      3.1     2.7      85      5.6    0.30     -9      0      0      0      0     1.3     1.3     10     0.02      0.1      0.1      0.1   100    19.3     0.010    83.8    0.008    0.081     100        0.04    0.000    0.000     355.8    115.7    0.30    85.6     150.0      90.0      70.4      56.2      37.1      30.0    0.000     0.000     0.000     0.000     0.000    0.30     0.00    0.00      0   -9.90   -9.00       25.5       30.1       30.0       30.0       30.0       30.0       30.0       30.0       30.0       30.0       30.0       30.0        0.0        0.0        0.0        0.0        0.0        0.0        0.0        0.0        0.0        0.0        0.0        0.0      0.0       2.9       3.8       9.6      15.3    423.08
     6     4  2024    13     2     354.2     0.0      0.0    0.0    0.0    0.0      0.2      0.0   -9.90      2.0      1.4     67      0.1      0.1   100      2.1     1.4      68      7.6    0.30      0      0      0      0      0     1.5     1.5      0     0.03      0.1      0.1      0.1   100    19.3     0.015    84.2    0.013    0.127     100        0.06    0.000    0.000     354.2    114.1    0.30    85.1     151.6      91.0      69.1      55.1      36.6      30.3    0.000     0.000     0.000     0.000     0.000    0.30     0.00    0.00      0   -9.90   -9.00       24.1       30.0       30.0       30.0       30.0       30.0       30.0       30.0       30.0       30.0       30.0       30.0        0.0        0.0        0.0        0.0        0.0        0.0        0.0        0.0        0.0        0.0        0.0        0.0      0.0       1.9       4.0      11.6      19.2    423.08
     7     4  2024    14     2     353.1     0.0      0.0    0.0    0.0    0.0      0.1      0.0   -9.90      1.7      1.0     58      0.0      0.0   100      1.7     1.0      59      5.1    0.32      0      0      0      0      0     1.7     1.7     15     0.03      0.0      0.0      0.0   100    19.3     0.020    84.4    0.017    0.170     100        0.07    0.000    0.000     353.1    113.1    0.32    87.8     157.9      94.7      71.3      56.8      37.8      31.6    0.000     0.000     0.000     0.000     0.000    0.32     0.00    0.00      0   -9.90   -9.00       23.1       30.0       30.0       30.0       30.0       30.0       30.0       30.0       30.0       30.0       30.0       30.0        0.0        0.0        0.0        0.0        0.0        0.0        0.0        0.0        0.0        0.0        0.0        0.0      0.0       1.6       2.5       9.1      15.7    423.08
     8     4  2024    15     2     353.4     1.4      0.0    0.0    1.4    0.0      0.0      0.0   -9.90      1.1      1.1    100      0.0      0.0   100      1.1     1.1     100      4.6    0.33      0      0      0      0      0     1.8     1.8     23     0.03      0.0      0.0      0.0   100    19.3     0.025    84.5    0.021    0.212     100        0.09    0.000    0.000     353.4    113.4    0.33    91.3     163.3      98.0      72.4      57.6      38.6      32.7    0.000     0.000     0.000     0.000     0.000    0.33     0.00    0.00      0   -9.90   -9.00       23.4       30.0       30.0       30.0       30.0       30.0       30.0       30.0       30.0       30.0       30.0       30.0        0.0        0.0        0.0        0.0        0.0        0.0        0.0        0.0        0.0        0.0        0.0        0.0      1.4       1.0       4.9       8.6      12.3    423.08
     9     4  2024    16     2     354.2     1.9      0.0    0.0    1.9    0.0      0.0      0.0   -9.90      1.0      1.0    100      0.0      0.0   100      1.0     1.0     100      1.7    0.33      0      0      0      0      0     1.9     1.9     90     0.03      0.0      0.0      0.0   100    19.3     0.026    84.6    0.022    0.218     100        0.09    0.000    0.000     354.2    114.2    0.33    93.3     165.2      99.1      73.1      58.2      39.0      33.0    0.000     0.000     0.000     0.000     0.000    0.33     0.00    0.00      0   -9.90   -9.00       24.2       30.0       30.0       30.0       30.0       30.0       30.0       30.0       30.0       30.0       30.0       30.0        0.0        0.0        0.0        0.0        0.0        0.0        0.0        0.0        0.0        0.0        0.0        0.0      1.9       1.0       1.7       5.7       9.7    423.08
    10     4  2024    17     2     352.9     0.0      0.0    0.0    0.0    0.0      0.0      0.0   -9.90      1.3      1.3     99      0.0      0.0   100      1.4     1.4      99      5.6    0.34      0      0      0      0      0     2.0     2.0     10     0.04      0.0      0.0      0.0   100    19.3     0.032    84.6    0.027    0.274     100        0.10    0.000    0.000     352.9    112.9    0.34    95.6     171.3     102.8      76.5      60.9      40.7      34.3    0.000     0.000     0.000     0.000     0.000    0.34     0.00    0.00      0   -9.90   -9.00       22.9       30.0       30.0       30.0       30.0       30.0       30.0       30.0       30.0       30.0       30.0       30.0        0.0        0.0        0.0        0.0        0.0        0.0        0.0        0.0        0.0        0.0        0.0        0.0      0.0       1.3       4.7       9.6      14.4    423.08
    11     4  2024    18     2     351.1     0.0      0.0    0.0    0.0    0.0      0.0      0.0   -9.90      2.0      1.7     84      0.0      0.0   100      2.1     1.7      84      2.1    0.35      0      0      0      0      0     2.1     2.1     84     0.04      0.0      0.0      0.0   100    19.3     0.034    84.7    0.028    0.284     100        0.10    0.000    0.000     351.1    111.1    0.35    95.2     173.5     104.1      79.2      63.1      41.9      34.7    0.000     0.000     0.000     0.000     0.000    0.35     0.00    0.00      0   -9.90   -9.00       21.1       30.0       30.0       30.0       30.0       30.0       30.0       30.0       30.0       30.0       30.0       30.0        0.0        0.0        0.0        0.0        0.0        0.0        0.0        0.0        0.0        0.0        0.0        0.0      0.0       1.9       2.1       6.1      10.1    423.08
    12     4  2024    19     2     349.2     0.0      0.0    0.0    0.0    0.0      0.0      0.0   -9.90      2.9      1.9     66      0.0      0.0   100      2.9     1.9      66      1.4    0.35      0      0      0      0      0     2.2     2.2     92     0.04      0.0      0.0      0.0   100    19.3     0.034    84.7    0.029    0.289     100        0.10    0.000    0.000     349.2    109.2    0.35    94.2     175.0     105.0      81.8      65.3      43.1      35.0    0.000     0.000     0.000     0.000     0.000    0.35     0.00    0.00      0   -9.90   -9.00       19.2       30.0       30.0       30.0       30.0       30.0       30.0       30.0       30.0       30.0       30.0       30.0        0.0        0.0        0.0        0.0        0.0        0.0        0.0        0.0        0.0        0.0        0.0        0.0      0.0       2.7      -0.3       5.4      11.2    423.08
    13     4  2024    20     2     347.7     0.0      0.0    0.0    0.0    0.0      0.0      0.0   -9.90      2.8      1.5     53      0.0      0.0   100      2.8     1.5      53      0.6    0.35      0      0      0      0      0     2.2     2.2     98     0.04      0.0      0.0      0.0   100    19.3     0.034    84.7    0.029    0.290     100        0.09    0.000    0.000     347.7    107.7    0.35    93.1     175.6     105.3      82.0      65.4      43.2      35.1    0.000     0.000     0.000     0.000     0.000    0.35     0.00    0.00      0   -9.90   -9.00       17.7       30.0       30.0       30.0       30.0       30.0       30.0       30.0       30.0       30.0       30.0       30.0        0.0        0.0        0.0        0.0        0.0        0.0        0.0        0.0        0.0        0.0        0.0        0.0      0.0       2.7      -2.2       4.6      11.3    423.08
    14     4  2024    21     2     360.6    14.0      0.0    0.0   13.8    0.2      0.0      0.0   -9.90      1.0      1.0    100      0.0      0.0   100      1.0     1.0     100      0.0    0.35      0     -9      0      0      0     2.2     2.2    100    -9.00      0.0      0.0      0.0   100    19.3     0.034    84.7    0.029    0.290     100        0.09    0.000    0.000     360.6    120.6    0.35   105.9     175.6     105.3      77.5      61.7      41.4      35.1    0.000     0.000     0.000     0.000     0.000    0.35     0.00    0.00      0   -9.90   -9.00       30.6       30.0       30.0       30.0       30.0       30.0       30.0       30.0       30.0       30.0       30.0       30.0        0.0        0.0        0.0        0.0        0.0        0.0        0.0        0.0        0.0        0.0        0.0        0.0     14.0       0.9       0.2       2.4       4.6    423.08
    15     4  2024    22     2     366.0     7.1      0.0    0.0    6.8    0.3      0.1      0.0   -9.90      1.2      1.2    100      0.0      0.0   100      1.2     1.2     100      0.0    0.35      0     -9      0      0      0     2.2     2.2    100    -9.00      0.0      0.0      0.0   100    19.3     0.034    84.7    0.029    0.290     100        0.09    0.000    0.000     366.0    125.9    0.35   111.3     175.6     105.3      78.2      62.3      41.7      35.1    0.000     0.000     0.000     0.000     0.000    0.35     0.00    0.00      0   -9.90   -9.00       35.7       30.1       30.1       30.0       30.0       30.0       30.0       30.0       30.0       30.0       30.0       30.0        0.0        0.0        0.0        0.0        0.0        0.0        0.0        0.0        0.0        0.0        0.0        0.0      7.1       1.2       0.9       3.6       6.2    423.08
    16     4  2024    23     2     363.0     0.0      0.0    0.0    0.0    0.0      1.2      0.0   -9.90      1.8      1.8    100      0.0      0.0   100      1.8     1.8     100      0.9    0.35      0      0      0      0      0     2.2     2.2     96     0.04      0.0      0.0      0.0   100    19.3     0.035    84.7    0.029    0.293     100        0.08    0.000    0.000     363.0    122.2    0.35   107.9     176.5     105.9      79.9      63.6      42.4      35.3    0.000     0.000     0.000     0.000     0.000    0.35     0.00    0.00      0   -9.90   -9.00       29.9       31.2       30.6       30.3       30.2       30.2       30.1       30.1       30.1       30.1       30.1       30.1        0.0        0.0        0.0        0.0        0.0        0.0        0.0        0.0        0.0        0.0        0.0        0.0      0.0       1.7       2.6       4.9       7.2    423.08
    17     4  2024    24     2     358.9     0.0      0.0    0.0    0.0    0.0      1.5      0.0   -9.90      2.6      2.6    100      0.1      0.1   100      2.7     2.7     100      3.6    0.36      0      0      0      0      0     2.4     2.4     48     0.04      0.1      0.1      0.1   100    19.3     0.039    84.7    0.033    0.330     100        0.09    0.000    0.000     358.9    118.1    0.36   106.1     180.1     108.1      83.6      66.6      44.1      36.0    0.000     0.000     0.000     0.000     0.000    0.36     0.00    0.00      0   -9.90   -9.00       27.3       30.4       30.2       30.2       30.2       30.1       30.1       30.1       30.1       30.1       30.1       30.1        0.0        0.0        0.0        0.0        0.0        0.0        0.0        0.0        0.0        0.0        0.0        0.0      0.0       2.5       4.3       7.6      10.9    423.08
    18     4  2024    25     2     354.8     0.0      0.0    0.0    0.0    0.0      1.0      0.0   -9.90      3.2      3.0     94      0.1      0.1   100      3.3     3.1      94      5.4    0.37      0      0      0      0      0     2.6     2.6     11     0.05      0.1      0.1      0.1   100    19.3     0.047    84.8    0.040    0.400     100        0.10    0.000    0.000     354.8    114.4    0.37   105.6     185.5     111.3      87.6      69.9      46.1      37.1    0.000     0.000     0.000     0.000     0.000    0.37     0.00    0.00      0   -9.90   -9.00       24.1       30.1       30.1       30.1       30.1       30.1       30.1       30.1       30.0       30.0       30.0       30.0        0.0        0.0        0.0        0.0        0.0        0.0        0.0        0.0        0.0        0.0        0.0        0.0      0.0       3.0       4.6       9.4      14.2    423.08
    19     4  2024    26     2     352.4     0.8      0.0    0.0    0.8    0.0      0.4      0.0   -9.90      2.9      2.7     92      0.1      0.1   100      3.0     2.8      93      4.5    0.38      0      0      0      0      0     2.8     2.8     25     0.05      0.1      0.1      0.1   100    19.3     0.055    84.8    0.046    0.464     100        0.10    0.000    0.000     352.4    112.2    0.38   106.1     189.8     113.9      88.8      70.9      46.8      38.0    0.000     0.000     0.000     0.000     0.000    0.38     0.00    0.00      0   -9.90   -9.00       22.2       30.0       30.0       30.0       30.0       30.0       30.0       30.0       30.0       30.0       30.0       30.0        0.0        0.0        0.0        0.0        0.0        0.0        0.0        0.0        0.0        0.0        0.0        0.0      0.8       2.8       3.4       8.5      13.6    423.08
    20     4  2024    27     2     350.8     0.3      0.0    0.0    0.3    0.0      0.2      0.0   -9.90      1.8      1.7     93      0.0      0.0   100      1.8     1.7      93      1.4    0.38      0      0      0      0      0     2.9     2.9     93     0.05      0.0      0.0      0.0   100    19.3     0.055    84.8    0.047    0.471     100        0.10    0.000    0.000     350.8    110.8    0.38   105.4     191.1     114.7      86.7      69.1      46.0      38.2    0.000     0.000     0.000     0.000     0.000    0.38     0.00    0.00      0   -9.90   -9.00       20.8       30.0       30.0       30.0       30.0       30.0       30.0       30.0       30.0       30.0       30.0       30.0        0.0        0.0        0.0        0.0        0.0        0.0        0.0        0.0        0.0        0.0        0.0        0.0      0.3       1.8       1.3       5.4       9.5    423.08
    21     4  2024    28     2     349.0     0.2      0.0    0.0    0.2    0.0      0.0      0.0   -9.90      2.3      2.0     87      0.0      0.0   100      2.3     2.0      87      1.5    0.38      0      0      0      0      0     3.0     3.0     92     0.05      0.0      0.0      0.0   100    19.3     0.056    84.8    0.048    0.477     100        0.10    0.000    0.000     349.0    109.0    0.38   104.4     192.4     115.5      88.5      70.6      46.8      38.5    0.000     0.000     0.000     0.000     0.000    0.38     0.00    0.00      0   -9.90   -9.00       19.0       30.0       30.0       30.0       30.0       30.0       30.0       30.0       30.0       30.0       30.0       30.0        0.0        0.0        0.0        0.0        0.0        0.0        0.0        0.0        0.0        0.0        0.0        0.0      0.2       2.2       2.1       5.5       8.8    423.08
    22     4  2024    29     2     346.8     0.0      0.0    0.0    0.0    0.0      0.0      0.0   -9.90      3.1      2.0     65      0.2      0.2   100      3.2     2.2      67      5.2    0.39      0      0      0      0      0     3.3     3.3     13     0.06      0.2      0.2      0.2   100    19.3     0.066    84.8    0.056    0.563     100        0.11    0.000    0.000     346.8    106.8    0.39   105.2     197.3     118.4      92.9      74.1      48.9      39.5    0.000     0.000     0.000     0.000     0.000    0.39     0.00    0.00      0   -9.90   -9.00       16.8       30.0       30.0       30.0       30.0       30.0       30.0       30.0       30.0       30.0       30.0       30.0        0.0        0.0        0.0        0.0        0.0        0.0        0.0        0.0        0.0        0.0        0.0        0.0      0.0       3.0       5.7       9.2      12.8    423.08
    23     4  2024    30     2     361.4    17.2      0.0    0.0   16.8    0.4      0.0      0.0   -9.90      2.2      2.2    100      0.1      0.1   100      2.2     2.2     100      3.9    0.40      0      0      0      0      0     3.5     3.5     40     0.06      0.1      0.1      0.1   100    19.3     0.074    84.8    0.063    0.627     100        0.12    0.000    0.000     361.4    121.4    0.40   121.4     200.0     120.0      91.7      73.1      48.5      40.0    0.000     0.000     0.000     0.000     0.000    0.40     0.00    0.00      0   -9.90   -9.00       31.4       30.0       30.0       30.0       30.0       30.0       30.0       30.0       30.0       30.0       30.0       30.0        0.0        0.0        0.0        0.0        0.0        0.0        0.0        0.0        0.0        0.0        0.0        0.0     17.2       2.1       3.2       7.9      12.6    423.08
    24     4  2024    31     2     360.3     1.2      0.0    0.0    1.2    0.0      0.3      0.0   -9.90      2.1      2.0     98      0.0      0.0   100      2.1     2.1      98      2.5    0.40      0      0      0      0      0     3.7     3.7     77     0.07      0.0      0.0      0.0   100    19.3     0.077    84.9    0.065    0.653     100        0.12    0.000    0.000     360.3    120.1    0.40   120.1     200.0     120.0      91.5      72.9      48.4      40.0    0.000     0.000     0.000     0.000     0.000    0.40     0.00    0.00      0   -9.90   -9.00       29.6       30.3       30.2       30.1       30.1       30.0       30.0       30.0       30.0       30.0       30.0       30.0        0.0        0.0        0.0        0.0        0.0        0.0        0.0        0.0        0.0        0.0        0.0        0.0      1.2       2.0       3.8       6.5       9.2    423.08
    25     4  2024    32     2     357.7     0.0      0.0    0.0    0.0    0.0      0.3      0.0   -9.90      2.8      2.2     79      0.1      0.1   100      2.8     2.2      80      2.8    0.40      0      0      0      0      0     3.9     3.9     71     0.07      0.1      0.1      0.1   100    19.3     0.081    84.9    0.069    0.686     100        0.12    0.000    0.000     357.7    117.5    0.40   117.5     200.0     120.0      93.4      74.5      49.2      40.0    0.000     0.000     0.000     0.000     0.000    0.40     0.00    0.00      0   -9.90   -9.00       27.3       30.1       30.0       30.0       30.0       30.0       30.0       30.0       30.0       30.0       30.0       30.0        0.0        0.0        0.0        0.0        0.0        0.0        0.0        0.0        0.0        0.0        0.0        0.0      0.0       2.7       3.5       6.8      10.0    423.08
    26     4  2024    33     2     355.2     0.0      0.0    0.0    0.0    0.0      0.2      0.0   -9.90      3.3      2.0     63      0.2      0.2   100      3.5     2.3      65      5.2    0.40      0      0      0      0      0     4.2     4.2     14     0.08      0.2      0.2      0.2   100    19.3     0.094    84.9    0.080    0.796     100        0.13    0.000    0.000     355.2    115.1    0.40   115.1     200.0     120.0      94.8      75.7      49.9      40.0    0.000     0.000     0.000     0.000     0.000    0.40     0.00    0.00      0   -9.90   -9.00       25.1       30.0       30.0       30.0       30.0       30.0       30.0       30.0       30.0       30.0       30.0       30.0        0.0        0.0        0.0        0.0        0.0        0.0        0.0        0.0        0.0        0.0        0.0        0.0      0.0       3.2       3.4       9.2      15.0    423.08
    27     4  2024    34     2     363.3    11.0      0.0    0.0   10.6    0.4      0.1      0.0   -9.90      2.2      2.2    100      0.2      0.2   100      2.4     2.4     100      6.0    0.40      0      0      0      0      0     4.7     4.7      6     0.09      0.2      0.2      0.2   100    19.3     0.109    84.9    0.093    0.928     100        0.15    0.000    0.000     363.3    123.3    0.40   123.3     200.0     120.0      92.0      73.3      48.7      40.0    0.000     0.000     0.000     0.000     0.000    0.40     0.00    0.00      0   -9.90   -9.00       33.3       30.0       30.0       30.0       30.0       30.0       30.0       30.0       30.0       30.0       30.0       30.0        0.0        0.0        0.0        0.0        0.0        0.0        0.0        0.0        0.0        0.0        0.0        0.0     11.0       2.2       6.5      10.0      13.5    423.08
    28     4  2024    35     2     375.8    17.6      0.0    0.0   14.5    3.1      0.6      0.0   -9.90      1.3      1.3    100      0.0      0.0   100      1.3     1.3     100      2.6    0.40      0      0      0      0      0     4.9     4.9     75     0.09      0.0      0.0      0.0   100    19.3     0.114    84.9    0.096    0.964     100        0.15    0.000    0.000     375.8    135.4    0.40   135.4     200.0     120.0      89.4      71.2      47.6      40.0    0.000     0.000     0.000     0.000     0.000    0.40     0.00    0.00      0   -9.90   -9.00       44.1       30.7       30.4       30.2       30.1       30.1       30.1       30.1       30.0       30.0       30.0       30.0        0.0        0.0        0.0        0.0        0.0        0.0        0.0        0.0        0.0        0.0        0.0        0.0     17.6       1.3       3.8       6.6       9.3    423.08
    29     4  2024    36     2     369.7     0.6      0.0    0.0    0.6    0.0      3.9      0.0   -9.90      2.9      2.7     93      0.2      0.2   100      3.1     2.9      93      4.5    0.40      0      0      0      0      0     5.4     5.4     25     0.10      0.2      0.2      0.2   100    19.3     0.127    84.9    0.108    1.082     100        0.16    0.000    0.000     369.7    126.5    0.40   126.5     200.0     120.0      94.0      75.0      49.5      40.0    0.000     0.000     0.000     0.000     0.000    0.40     0.00    0.00      0   -9.90   -9.00       30.8       33.0       31.7       31.0       30.9       30.6       30.4       30.3       30.3       30.2       30.2       30.2        0.0        0.0        0.0        0.0        0.0        0.0        0.0        0.0        0.0        0.0        0.0        0.0      0.6       2.9       5.1       8.5      11.9    423.08
    30     4  2024    37     2     363.3     0.0      0.0    0.0    0.0    0.0      4.8      0.0   -9.90      2.0      1.3     64      0.2      0.2   100      2.2     1.5      67      5.1    0.40      0      0      0      0      0     5.9     5.9     16     0.11      0.2      0.2      0.2   100    19.3     0.145    84.9    0.123    1.228     100        0.18    0.000    0.000     363.3    120.8    0.40   120.8     200.0     120.0      91.6      73.0      48.5      40.0    0.000     0.000     0.000     0.000     0.000    0.40     0.00    0.00      0   -9.90   -9.00       28.8       30.9       30.6       30.6       30.5       30.4       30.4       30.3       30.3       30.2       30.2       30.2        0.0        0.0        0.0        0.0        0.0        0.0        0.0        0.0        0.0        0.0        0.0        0.0      0.0       2.1       6.1       9.1      12.0    423.08
     1     5  2024    38     2     359.0     0.0      0.0    0.0    0.0    0.0      2.8      0.0   -9.90      2.4      1.3     54      0.2      0.2   100      2.6     1.5      57      3.8    0.40      0      0      0      0      0     6.3     6.3     44     0.11      0.2      0.2      0.2   100    19.3     0.157    84.9    0.133    1.332     100        0.19    0.000    0.000     359.0    117.9    0.40   117.9     200.0     120.0      92.8      74.0      49.0      40.0    0.000     0.000     0.000     0.000     0.000    0.40     0.00    0.00      0   -9.90   -9.00       27.3       30.3       30.2       30.2       30.2       30.2       30.2       30.1       30.1       30.1       30.1       30.1        0.0        0.0        0.0        0.0        0.0        0.0        0.0        0.0        0.0        0.0        0.0        0.0      0.0       2.5       4.6       7.8      10.9    423.08
     2     5  2024    39     2     358.3     2.3      0.0    0.0    2.3    0.0      1.2      0.0   -9.90      1.7      1.7    100      0.2      0.2   100      1.9     1.9     100      4.4    0.40      0      0      0      0      0     6.8     6.8     28     0.12      0.2      0.2      0.2   100    19.3     0.174    84.9    0.148    1.476     100        0.21    0.000    0.000     358.3    117.9    0.40   117.9     200.0     120.0      90.8      72.4      48.2      40.0    0.000     0.000     0.000     0.000     0.000    0.40     0.00    0.00      0   -9.90   -9.00       27.7       30.1       30.1       30.1       30.1       30.1       30.1       30.0       30.0       30.0       30.0       30.0        0.0        0.0        0.0        0.0        0.0        0.0        0.0        0.0        0.0        0.0        0.0        0.0      2.3       1.8       4.3       8.4      12.5    423.08
     3     5  2024    40     2     369.4    14.7      0.0    0.0   13.2    1.5      0.4      0.0   -9.90      1.5      1.5    100      0.2      0.2   100      1.7     1.7     100      5.3    0.40      0      0      0      0      0     7.4     7.4     12     0.13      0.2      0.2      0.2   100    19.3     0.196    84.9    0.167    1.667     100        0.23    0.000    0.000     369.4    129.3    0.40   129.3     200.0     120.0      90.3      71.9      48.0      40.0    0.000     0.000     0.000     0.000     0.000    0.40     0.00    0.00      0   -9.90   -9.00       39.2       30.0       30.0       30.0       30.0       30.0       30.0       30.0       30.0       30.0       30.0       30.0        0.0        0.0        0.0        0.0        0.0        0.0        0.0        0.0        0.0        0.0        0.0        0.0     14.7       1.6       5.5       9.3      13.1    423.08
     4     5  2024    41     2     365.7     0.2      0.0    0.0    0.2    0.0      2.0      0.0   -9.90      1.9      1.8     92      0.1      0.1   100      2.1     1.9      93      3.6    0.40      0      0      0      0      0     7.9     7.9     50     0.14      0.1      0.1      0.1   100    19.3     0.210    84.9    0.178    1.784     100        0.24    0.000    0.000     365.7    124.1    0.40   124.1     200.0     120.0      91.5      73.0      48.5      40.0    0.000     0.000     0.000     0.000     0.000    0.40     0.00    0.00      0   -9.90   -9.00       30.6       31.9       31.0       30.5       30.4       30.3       30.2       30.2       30.1       30.1       30.1       30.1        0.0        0.0        0.0        0.0        0.0        0.0        0.0        0.0        0.0        0.0        0.0        0.0      0.2       2.0       4.7       7.6      10.4    423.08
     5     5  2024    42     2     360.8     0.0      0.0    0.0    0.0    0.0      2.7      0.0   -9.90      2.9      2.0     67      0.2      0.2   100      3.2     2.2      70      3.4    0.40      0      0      0      0      0     8.4     8.4     54     0.15      0.2      0.2      0.2   100    19.3     0.223    84.9    0.190    1.897     100        0.25    0.000    0.000     360.8    119.4    0.40   119.4     200.0     120.0      94.6      75.5      49.7      40.0    0.000     0.000     0.000     0.000     0.000    0.40     0.00    0.00      0   -9.90   -9.00       28.0       30.6       30.4       30.4       30.3       30.2       30.2       30.2       30.2       30.1       30.1       30.1        0.0        0.0        0.0        0.0        0.0        0.0        0.0        0.0        0.0        0.0        0.0        0.0      0.0       3.1       3.6       7.4      11.2    423.08
     6     5  2024    43     2     374.9    20.0      0.0    0.0   16.7    3.3      1.7      0.0   -9.90      0.9      0.9    100      0.0      0.0   100      0.9     0.9     100      1.0    0.40      0      0      0      0      0     8.6     8.6     96     0.15      0.0      0.0      0.0   100    19.3     0.224    84.9    0.191    1.906     100        0.25    0.000    0.000     374.9    134.2    0.40   134.2     200.0     120.0      88.5      70.4      47.2      40.0    0.000     0.000     0.000     0.000     0.000    0.40     0.00    0.00      0   -9.90   -9.00       43.8       30.2       30.1       30.1       30.1       30.1       30.1       30.1       30.1       30.1       30.1       30.1        0.0        0.0        0.0        0.0        0.0        0.0        0.0        0.0        0.0        0.0        0.0        0.0     20.0       1.0       2.9       5.0       7.0    423.08
     7     5  2024    44     2     368.9     0.8      0.0    0.0    0.8    0.0      3.7      0.0   -9.90      2.9      2.7     94      0.4      0.4   100      3.3     3.1      95      4.8    0.40      0      0      0      0      0     9.3     9.3     21     0.16      0.4      0.4      0.4   100    19.3     0.250    85.0    0.212    2.121     100        0.26    0.000    0.000     368.9    126.1    0.40   126.1     200.0     120.0      94.5      75.4      49.7      40.0    0.000     0.000     0.000     0.000     0.000    0.40     0.00    0.00      0   -9.90   -9.00       30.6       32.9       31.6       31.2       30.8       30.5       30.4       30.3       30.3       30.2       30.2       30.2        0.0        0.0        0.0        0.0        0.0        0.0        0.0        0.0        0.0        0.0        0.0        0.0      0.8       3.1       6.2       8.8      11.3    423.08
     8     5  2024    45     2     364.0     1.8      0.0    0.0    1.8    0.0      4.5      0.0   -9.90      2.0      2.0    100      0.2      0.2   100      2.2     2.2     100      4.0    0.40      0      0      0      0      0    10.0    10.0     37     0.18      0.2      0.2      0.2   100    19.3     0.271    85.0    0.230    2.302     100        0.28    0.000    0.000     364.0    121.7    0.40   121.7     200.0     120.0      91.9      73.3      48.6      40.0    0.000     0.000     0.000     0.000     0.000    0.40     0.00    0.00      0   -9.90   -9.00       29.8       30.9       30.5       30.5       30.5       30.4       30.3       30.3       30.3       30.2       30.2       30.2        0.0        0.0        0.0        0.0        0.0        0.0        0.0        0.0        0.0        0.0        0.0        0.0      1.8       2.2       4.2       8.0      11.8    423.08
     9     5  2024    46     2     359.0     0.0      0.0    0.0    0.0    0.0      2.6      0.0   -9.90      2.6      2.1     82      0.3      0.3   100      2.8     2.4      83      3.5    0.40      0      0      0      0      0    10.6    10.6     52     0.19      0.3      0.3      0.3   100    19.3     0.288    85.0    0.245    2.447     100        0.29    0.000    0.000     359.0    118.0    0.40   118.0     200.0     120.0      93.9      74.9      49.4      40.0    0.000     0.000     0.000     0.000     0.000    0.40     0.00    0.00      0   -9.90   -9.00       27.4       30.3       30.2       30.2       30.1       30.1       30.1       30.1       30.1       30.1       30.1       30.1        0.0        0.0        0.0        0.0        0.0        0.0        0.0        0.0        0.0        0.0        0.0        0.0      0.0       2.8       2.5       7.5      12.4    423.08
    10     5  2024    47     2     355.3     0.2      0.0    0.0    0.2    0.0      1.1      0.0   -9.90      2.6      2.4     91      0.5      0.5   100      3.1     2.9      92      4.9    0.40      0      0      0      0      0    11.6    11.6     18     0.20      0.5      0.5      0.5   100    19.3     0.320    85.0    0.272    2.720     100        0.31    0.000    0.000     355.3    114.9    0.40   114.9     200.0     120.0      94.1      75.0      49.5      40.0    0.000     0.000     0.000     0.000     0.000    0.40     0.00    0.00      0   -9.90   -9.00       24.7       30.1       30.1       30.0       30.0       30.0       30.0       30.0       30.0       30.0       30.0       30.0        0.0        0.0        0.0        0.0        0.0        0.0        0.0        0.0        0.0        0.0        0.0        0.0      0.2       2.9       5.3       8.9      12.5    423.08
    11     5  2024    48     2     352.1     0.0      0.0    0.0    0.0    0.0      0.4      0.0   -9.90      3.2      2.1     66      0.8      0.8   100      3.9     2.8      73      5.9    0.40      0      0      0      0      0    12.9    12.9      7     0.22      0.8      0.8      0.8   100    19.3     0.360    85.0    0.306    3.061     100        0.34    0.000    0.000     352.1    111.9    0.40   111.9     200.0     120.0      96.1      76.7      50.4      40.0    0.000     0.000     0.000     0.000     0.000    0.40     0.00    0.00      0   -9.90   -9.00       21.9       30.0       30.0       30.0       30.0       30.0       30.0       30.0       30.0       30.0       30.0       30.0        0.0        0.0        0.0        0.0        0.0        0.0        0.0        0.0        0.0        0.0        0.0        0.0      0.0       3.6       5.5       9.9      14.3    423.08
    12     5  2024    49     2     349.6     0.0      0.0    0.0    0.0    0.0      0.1      0.0   -9.90      3.1      1.5     49      0.9      0.9   100      4.0     2.4      60      6.1    0.40      0      0      0      0      0    14.3    14.3      6     0.25      0.9      0.9      0.9   100    19.3     0.405    85.0    0.344    3.443     100        0.37    0.000    0.000     349.6    109.5    0.40   109.5     200.0     120.0      96.3      76.9      50.4      40.0    0.000     0.000     0.000     0.000     0.000    0.40     0.00    0.00      0   -9.90   -9.00       19.5       30.0       30.0       30.0       30.0       30.0       30.0       30.0       30.0       30.0       30.0       30.0        0.0        0.0        0.0        0.0        0.0        0.0        0.0        0.0        0.0        0.0        0.0        0.0      0.0       3.7       5.5      10.1      14.7    423.08
    13     5  2024    50     2     346.9     0.0      0.0    0.0    0.0    0.0      0.0      0.0   -9.90      3.7      1.4     37      1.3      1.3   100      4.9     2.6      53      8.3    0.40      0      0      0      0      0    16.6    16.6      0     0.28      1.3      1.3      1.3   100    19.3     0.460    85.0    0.391    3.905     100        0.41    0.000    0.000     346.9    106.9    0.40   106.9     200.0     120.0      98.6      78.8      51.4      40.0    0.000     0.000     0.000     0.000     0.000    0.40     0.00    0.00      0   -9.90   -9.00       16.9       30.0       30.0       30.0       30.0       30.0       30.0       30.0       30.0       30.0       30.0       30.0        0.0        0.0        0.0        0.0        0.0        0.0        0.0        0.0        0.0        0.0        0.0        0.0      0.0       4.5       4.7      12.3      20.0    423.08
    14     5  2024    51     2     345.0     0.0      0.0    0.0    0.0    0.0      0.0      0.0   -9.90      2.8      0.8     28      1.2      1.2   100      4.0     1.9      49      7.7    0.40      0      0      0      0      0    19.1    19.1      0     0.32      1.2      1.2      1.2   100    19.3     0.521    85.0    0.443    4.428     100        0.45    0.000    0.000     345.0    105.0    0.40   105.0     200.0     120.0      96.1      76.7      50.4      40.0    0.000     0.000     0.000     0.000     0.000    0.40     0.00    0.00      0   -9.90   -9.00       15.0       30.0       30.0       30.0       30.0       30.0       30.0       30.0       30.0       30.0       30.0       30.0        0.0        0.0        0.0        0.0        0.0        0.0        0.0        0.0        0.0        0.0        0.0        0.0      0.0       3.6       7.0      11.7      16.3    423.08
    15     5  2024    52     2     343.0     0.0      0.0    0.0    0.0    0.0      0.0      0.0   -9.90      2.8      0.6     22      1.4      1.4   100      4.1     2.0      48      7.8    0.40      0      0      0      0      0    21.9    21.9      0     0.36      1.4      1.4      1.4   100    19.3     0.591    85.0    0.502    5.020     100        0.50    0.000    0.000     343.0    103.0    0.40   103.0     200.0     120.0      96.4      77.0      50.5      40.0    0.000     0.000     0.000     0.000     0.000    0.40     0.00    0.00      0   -9.90   -9.00       13.0       30.0       30.0       30.0       30.0       30.0       30.0       30.0       30.0       30.0       30.0       30.0        0.0        0.0        0.0        0.0        0.0        0.0        0.0        0.0        0.0        0.0        0.0        0.0      0.0       3.8       5.8      11.8      17.9    423.08
    16     5  2024    53     2     341.2     0.0      0.0    0.0    0.0    0.0      0.0      0.0   -9.90      2.3      0.4     17      1.3      1.3   100      3.7     1.7      48      7.0    0.40      0      0      0      0      0    24.9    24.9      0     0.40      1.3      1.3      1.3   100    19.3     0.668    85.0    0.568    5.679     100        0.56    0.000    0.000     341.2    101.2    0.40   101.2     200.0     120.0      95.3      76.1      50.0      40.0    0.000     0.000     0.000     0.000     0.000    0.40     0.00    0.00      0   -9.90   -9.00       11.2       30.0       30.0       30.0       30.0       30.0       30.0       30.0       30.0       30.0       30.0       30.0        0.0        0.0        0.0        0.0        0.0        0.0        0.0        0.0        0.0        0.0        0.0        0.0      0.0       3.3       4.7      11.0      17.4    423.08
    17     5  2024    54     2     338.9     0.0      0.0    0.0    0.0    0.0      0.0      0.0   -9.90      2.7      0.4     14      2.0      2.0   100      4.7     2.3      50      8.6    0.40      0      0      0      0      0    28.9    28.9      0     0.46      2.0      2.0      2.0   100    19.3     0.756    85.0    0.643    6.429     100        0.62    0.000    0.000     338.9     98.9    0.40    98.9     200.0     120.0      98.0      78.3      51.2      40.0    0.000     0.000     0.000     0.000     0.000    0.40     0.00    0.00      0   -9.90   -9.00        9.7       29.2       30.0       30.0       30.0       30.0       30.0       30.0       30.0       30.0       30.0       30.0        0.0        0.0        0.0        0.0        0.0        0.0        0.0        0.0        0.0        0.0        0.0        0.0      0.0       4.3       6.4      12.6      18.7    423.08
    18     5  2024    55     2     337.0     0.0      0.0    0.0    0.0    0.0      0.0      0.0   -9.90      2.1      0.2     11      1.6      1.6   100      3.7     1.9      50      5.9    0.40      0      0      0      0      0    32.2    32.2      6     0.50      1.6      1.6      1.6   100    19.3     0.847    85.0    0.719    7.194     100        0.68    0.000    0.000     337.0     97.0    0.40    97.0     200.0     120.0      95.8      76.5      50.2      40.0    0.000     0.000     0.000     0.000     0.000    0.40     0.00    0.00      0   -9.90   -9.00        9.4       27.6       30.0       30.0       30.0       30.0       30.0       30.0       30.0       30.0       30.0       30.0        0.0        0.0        0.0        0.0        0.0        0.0        0.0        0.0        0.0        0.0        0.0        0.0      0.0       3.5       5.0       9.9      14.9    423.08
    19     5  2024    56     2     334.9     0.0      0.0    0.0    0.0    0.0      0.0      0.0   -9.90      2.0      0.2      9      2.0      2.0   100      4.0     2.2      54      6.7    0.40      0      0      0      0      0    36.2    36.2      3     0.55      2.0      2.0      2.0   100    19.3     0.949    85.0    0.807    8.068     100        0.75    0.000    0.000     334.9     94.9    0.40    94.9     200.0     120.0      96.4      77.0      50.5      40.0    0.000     0.000     0.000     0.000     0.000    0.40     0.00    0.00      0   -9.90   -9.00        9.2       25.6       30.0       30.0       30.0       30.0       30.0       30.0       30.0       30.0       30.0       30.0        0.0        0.0        0.0        0.0        0.0        0.0        0.0        0.0        0.0        0.0        0.0        0.0      0.0       3.8       4.0      10.7      17.3    423.08
    20     5  2024    57     2     334.7     2.2      0.0    0.0    2.2    0.0      0.0      0.0   -9.90      1.0      1.0    100      1.3      1.3   100      2.4     2.4     100      8.0    0.40      0      0      0      0      0    41.7    41.7      0     0.61      1.3      1.3      1.3   100    19.3     1.068    85.0    0.907    9.073     100        0.82    0.000    0.000     334.7     94.7    0.40    94.7     200.0     120.0      92.0      73.3      48.7      40.0    0.000     0.000     0.000     0.000     0.000    0.40     0.00    0.00      0   -9.90   -9.00        9.7       24.9       30.0       30.0       30.0       30.0       30.0       30.0       30.0       30.0       30.0       30.0        0.0        0.0        0.0        0.0        0.0        0.0        0.0        0.0        0.0        0.0        0.0        0.0      2.2       2.2       7.8      12.0      16.1    423.08
    21     5  2024    58     2     338.2     7.2      0.0    0.0    7.2    0.0      0.0      0.0   -9.90      1.4      1.4    100      2.2      2.2   100      3.7     3.7     100      7.2    0.40      0      0      0      0      0    46.8    46.8      0     0.67      2.2      2.2      2.2   100    19.3     1.197    85.0    1.017   10.171     100        0.89    0.000    0.000     338.2     98.2    0.40    98.2     200.0     120.0      95.3      76.1      50.1      40.0    0.000     0.000     0.000     0.000     0.000    0.40     0.00    0.00      0   -9.90   -9.00       13.3       24.9       30.0       30.0       30.0       30.0       30.0       30.0       30.0       30.0       30.0       30.0        0.0        0.0        0.0        0.0        0.0        0.0        0.0        0.0        0.0        0.0        0.0        0.0      7.2       3.4       4.0      11.2      18.4    423.08
    22     5  2024    59     2     335.6     0.0      0.0    0.0    0.0    0.0      0.0      0.0   -9.90      1.4      1.4    100      1.1      1.1   100      2.6     2.6     100      3.4    0.40      0      0      0      0      0    49.0    49.0     54     0.69      1.1      1.1      1.1   100    19.3     1.258    85.0    1.070   10.696     100        0.92    0.000    0.000     335.6     95.6    0.40    95.6     200.0     120.0      96.0      76.7      50.3      40.0    0.000     0.000     0.000     0.000     0.000    0.40     0.00    0.00      0   -9.90   -9.00       10.7       24.9       30.0       30.0       30.0       30.0       30.0       30.0       30.0       30.0       30.0       30.0        0.0        0.0        0.0        0.0        0.0        0.0        0.0        0.0        0.0        0.0        0.0        0.0      0.0       3.6       2.3       7.4      12.5    423.08
    23     5  2024    60     2     331.9     0.0      0.0    0.0    0.0    0.0      0.0      0.0   -9.90      1.3      1.3    100      2.5      2.5   100      3.8     3.8     100      6.1    0.40      0      0      0      0      0    52.6    52.6      6     0.73      2.5      2.5      2.5   100    19.3     1.391    85.0    1.183   11.826     100        0.99    0.000    0.000     331.9     91.9    0.40    91.9     200.0     120.0      96.0      76.7      50.3      40.0    0.000     0.000     0.000     0.000     0.000    0.40     0.00    0.00      0   -9.90   -9.00        9.4       22.5       30.0       30.0       30.0       30.0       30.0       30.0       30.0       30.0       30.0       30.0        0.0        0.0        0.0        0.0        0.0        0.0        0.0        0.0        0.0        0.0        0.0        0.0      0.0       3.6       6.5      10.1      13.7    423.08
    24     5  2024    61     2     329.3     0.0      0.0    0.0    0.0    0.0      0.0      0.0   -9.90      0.8      0.8    100      1.9      1.9   100      2.6     2.6     100      8.8    0.40      1      0      0      0      0    57.2    57.2      0     0.77      1.9      1.9      1.9   100    19.3     1.541    85.0    1.309   13.094     100        1.07    0.000    0.000     329.3     89.3    0.40    89.3     200.0     120.0      92.6      73.8      48.9      40.0    0.000     0.000     0.000     0.000     0.000    0.40     0.00    0.00      0   -9.90   -9.00        8.6       20.6       30.0       30.0       30.0       30.0       30.0       30.0       30.0       30.0       30.0       30.0        0.0        0.0        0.0        0.0        0.0        0.0        0.0        0.0        0.0        0.0        0.0        0.0      0.0       2.4      10.4      12.8      15.2    423.08
    25     5  2024    62     2     331.8     6.1      0.0    0.0    6.1    0.0      0.0      0.0   -9.90      0.9      0.9    100      2.6      2.6   100      3.5     3.5     100     10.2    0.40      0      0      0      0      0    61.7    61.7      0     0.81      2.6      2.6      2.6   100    19.3     1.698    85.0    1.443   14.431     100        1.14    0.000    0.000     331.8     91.8    0.40    91.8     200.0     120.0      95.0      75.8      49.9      40.0    0.000     0.000     0.000     0.000     0.000    0.40     0.00    0.00      0   -9.90   -9.00       11.2       20.6       30.0       30.0       30.0       30.0       30.0       30.0       30.0       30.0       30.0       30.0        0.0        0.0        0.0        0.0        0.0        0.0        0.0        0.0        0.0        0.0        0.0        0.0      6.1       3.2       9.5      14.2      18.9    423.08
    26     5  2024    63     2     329.4     0.0      0.0    0.0    0.0    0.0      0.0      0.0   -9.90      0.7      0.7    100      1.7      1.7   100      2.4     2.4     100      4.5    0.40      1      0      0      0      0    63.4    63.4     25     0.83      1.7      1.7      1.7   100    19.3     1.817    85.0    1.545   15.445     100        1.20    0.000    0.000     329.4     89.4    0.40    89.4     200.0     120.0      93.5      74.6      49.3      40.0    0.000     0.000     0.000     0.000     0.000    0.40     0.00    0.00      0   -9.90   -9.00        9.7       19.7       30.0       30.0       30.0       30.0       30.0       30.0       30.0       30.0       30.0       30.0        0.0        0.0        0.0        0.0        0.0        0.0        0.0        0.0        0.0        0.0        0.0        0.0      0.0       2.7       5.9       8.5      11.1    423.08
    27     5  2024    64     2     345.2    16.4      0.0    0.0   16.4    0.0      0.0      0.0   -9.90      0.2      0.2    100      0.4      0.4   100      0.6     0.6     100      3.4    0.40      0      0      0      0      0    64.6    64.6     54     0.84      0.4      0.4      0.4   100    19.3     1.892    85.0    1.608   16.082     100        1.24    0.000    0.000     345.2    105.2    0.40   105.2     200.0     120.0      88.6      70.5      47.3      40.0    0.000     0.000     0.000     0.000     0.000    0.40     0.00    0.00      0   -9.90   -9.00       25.5       19.7       30.0       30.0       30.0       30.0       30.0       30.0       30.0       30.0       30.0       30.0        0.0        0.0        0.0        0.0        0.0        0.0        0.0        0.0        0.0        0.0        0.0        0.0     16.4       1.0       6.2       7.4       8.6    423.08
    28     5  2024    65     2     345.8     1.6      0.0    0.0    1.6    0.0      0.0      0.0   -9.90      0.3      0.3    100      0.7      0.7   100      1.0     1.0     100      4.2    0.40      0      0      0      0      0    66.0    66.0     31     0.85      0.7      0.7      0.7   100    19.3     2.006    85.0    1.705   17.047     100        1.31    0.000    0.000     345.8    105.8    0.40   105.8     200.0     120.0      89.2      71.0      47.5      40.0    0.000     0.000     0.000     0.000     0.000    0.40     0.00    0.00      0   -9.90   -9.00       26.1       19.7       30.0       30.0       30.0       30.0       30.0       30.0       30.0       30.0       30.0       30.0        0.0        0.0        0.0        0.0        0.0        0.0        0.0        0.0        0.0        0.0        0.0        0.0      1.6       1.2       6.4       8.2      10.1    423.08
    29     5  2024    66     2     349.1     6.7      0.0    0.0    6.7    0.0      0.0      0.0   -9.90      0.7      0.7    100      2.8      2.8   100      3.4     3.4     100     10.7    0.40      0      0      0      0      0    69.2    69.2      0     0.88      2.8      2.8      2.8   100    19.3     2.175    85.0    1.849   18.490     100        1.38    0.000    0.000     349.1    109.1    0.40   109.1     200.0     120.0      94.8      75.7      49.8      40.0    0.000     0.000     0.000     0.000     0.000    0.40     0.00    0.00      0   -9.90   -9.00       29.3       19.7       30.0       30.0       30.0       30.0       30.0       30.0       30.0       30.0       30.0       30.0        0.0        0.0        0.0        0.0        0.0        0.0        0.0        0.0        0.0        0.0        0.0        0.0      6.7       3.2       8.8      14.7      20.5    423.08
    30     5  2024    67     2     345.5     0.0      0.0    0.0    0.0    0.0      0.0      0.0   -9.90      0.6      0.6    100      2.9      2.9   100      3.6     3.6     100      8.2    0.40      0      0      0      0      0    71.2    71.2      0     0.90      2.9      2.9      2.9   100    19.3     2.348    85.0    1.996   19.960     100        1.46    0.000    0.000     345.5    105.5    0.40   105.5     200.0     120.0      95.1      75.9      50.0      40.0    0.000     0.000     0.000     0.000     0.000    0.40     0.00    0.00      0   -9.90   -9.00       25.8       19.7       30.0       30.0       30.0       30.0       30.0       30.0       30.0       30.0       30.0       30.0        0.0        0.0        0.0        0.0        0.0        0.0        0.0        0.0        0.0        0.0        0.0        0.0      0.0       3.3       9.3      12.2      15.0    423.08
    31     5  2024    68     2     340.5     0.0      0.0    0.0    0.0    0.0      0.0      0.0   -9.90      0.8      0.8    100      4.2      4.2   100      5.0     5.0     100     11.7    0.40      0      0      0      0      0    73.6    73.6      0     0.91      4.2      4.2      4.2   100    19.3     2.525    85.0    2.146   21.463     100        1.51    0.000    0.000     340.5    100.5    0.40   100.5     200.0     120.0      99.0      79.1      51.6      40.0    0.000     0.000     0.000     0.000     0.000    0.40     0.00    0.00      0   -9.90   -9.00       20.7       19.7       30.0       30.0       30.0       30.0       30.0       30.0       30.0       30.0       30.0       30.0        0.0        0.0        0.0        0.0        0.0        0.0        0.0        0.0        0.0        0.0        0.0        0.0      0.0       4.6      10.6      15.7      20.8    423.08
     1     6  2024    69     2     337.3     0.3      0.0    0.0    0.3    0.0      0.0      0.0   -9.90      0.5      0.4     77      3.1      3.1   100      3.6     3.5      97     11.0    0.40      0      0      0      0      0    75.5    75.5      0     0.93      3.1      3.1      3.1   100    19.3     2.705    85.0    2.299   22.990     100        1.58    0.000    0.000     337.3     97.3    0.40    97.3     200.0     120.0      95.1      75.9      50.0      40.0    0.000     0.000     0.000     0.000     0.000    0.40     0.00    0.00      0   -9.90   -9.00       17.6       19.7       30.0       30.0       30.0       30.0       30.0       30.0       30.0       30.0       30.0       30.0        0.0        0.0        0.0        0.0        0.0        0.0        0.0        0.0        0.0        0.0        0.0        0.0      0.3       3.3      10.6      15.0      19.4    423.08
     2     6  2024    70     2     336.8     1.0      0.0    0.0    1.0    0.0      0.0      0.0   -9.90      0.2      0.2    100      1.3      1.3   100      1.5     1.5     100      8.2    0.40      0      0      0      0      0    76.7    76.7      0     0.94      1.3      1.3      1.3   100    19.3     2.886    85.0    2.453   24.533     100        1.67    0.000    0.000     336.8     96.8    0.40    96.8     200.0     120.0      89.6      71.3      47.7      40.0    0.000     0.000     0.000     0.000     0.000    0.40     0.00    0.00      0   -9.90   -9.00       17.1       19.7       30.0       30.0       30.0       30.0       30.0       30.0       30.0       30.0       30.0       30.0        0.0        0.0        0.0        0.0        0.0        0.0        0.0        0.0        0.0        0.0        0.0        0.0      1.0       1.3      11.2      12.2      13.3    423.08
     3     6  2024    71     2     333.1     0.0      0.0    0.0    0.0    0.0      0.0      0.0   -9.90      0.5      0.5    100      3.3      3.3   100      3.8     3.8     100     10.7    0.40      0      0      0      0      0    78.0    78.0      0     0.95      3.3      3.3      3.3   100    19.3     3.070    85.0    2.609   26.091     100        1.73    0.000    0.000     333.1     93.1    0.40    93.1     200.0     120.0      95.6      76.4      50.2      40.0    0.000     0.000     0.000     0.000     0.000    0.40     0.00    0.00      0   -9.90   -9.00       13.3       19.7       30.0       30.0       30.0       30.0       30.0       30.0       30.0       30.0       30.0       30.0        0.0        0.0        0.0        0.0        0.0        0.0        0.0        0.0        0.0        0.0        0.0        0.0      0.0       3.5      10.2      14.7      19.1    423.08
     4     6  2024    72     2     327.8     0.0      0.0    0.0    0.0    0.0      0.0      0.0   -9.90      0.7      0.4     57      4.9      4.9   100      5.6     5.3      95     14.5    0.40      8      0      0      0      0    79.3    79.3      0     0.96      4.9      4.9      4.9   100    19.3     3.255    85.0    2.767   27.666     100        1.77    0.000    0.000     327.8     87.8    0.40    87.8     200.0     120.0     100.4      80.3      52.2      40.0    0.000     0.000     0.000     0.000     0.000    0.40     0.00    0.00      0   -9.90   -9.00       10.0       17.8       30.0       30.0       30.0       30.0       30.0       30.0       30.0       30.0       30.0       30.0        0.0        0.0        0.0        0.0        0.0        0.0        0.0        0.0        0.0        0.0        0.0        0.0      0.0       5.1      12.5      18.5      24.5    423.08
     5     6  2024    73     2     325.5     0.0      0.0    0.0    0.0    0.0      0.0      0.0   -9.90      0.3      0.0      7      2.3      2.3   100      2.5     2.3      90     12.9    0.40      5      0      0      0      0    80.2    80.2      0     0.97      2.3      2.3      2.3   100    19.3     3.442    85.0    2.925   29.253     100        1.85    0.000    0.000     325.5     85.5    0.40    85.5     200.0     120.0      92.4      73.7      48.8      40.0    0.000     0.000     0.000     0.000     0.000    0.40     0.00    0.00      0   -9.90   -9.00       10.0       15.5       30.0       30.0       30.0       30.0       30.0       30.0       30.0       30.0       30.0       30.0        0.0        0.0        0.0        0.0        0.0        0.0        0.0        0.0        0.0        0.0        0.0        0.0      0.0       2.3      12.3      16.9      21.4    423.08
     6     6  2024    74     2     324.4     0.0      0.0    0.0    0.0    0.0      0.0      0.0   -9.90      0.1      0.0      6      1.1      1.1   100      1.2     1.1      90     12.1    0.40      3      0      0      0      0    80.9    80.9      0     0.97      1.1      1.1      1.1   100    19.3     3.629    85.0    3.085   30.848     100        1.93    0.000    0.000     324.4     84.4    0.40    84.4     200.0     120.0      89.0      70.8      47.4      40.0    0.000     0.000     0.000     0.000     0.000    0.40     0.00    0.00      0   -9.90   -9.00       10.0       14.4       30.0       30.0       30.0       30.0       30.0       30.0       30.0       30.0       30.0       30.0        0.0        0.0        0.0        0.0        0.0        0.0        0.0        0.0        0.0        0.0        0.0        0.0      0.0       1.1      12.9      16.1      19.4    423.08
     7     6  2024    75     2     329.8     6.9      0.0    0.0    6.9    0.0      0.0      0.0   -9.90      0.2      0.2    100      1.4      1.4   100      1.5     1.5     100     12.7    0.40      0      0      0      0      0    81.6    81.6      0     0.98      1.4      1.4      1.4   100    19.3     3.818    85.0    3.245   32.451     100        2.01    0.000    0.000     329.8     89.8    0.40    89.8     200.0     120.0      89.8      71.5      47.7      40.0    0.000     0.000     0.000     0.000     0.000    0.40     0.00    0.00      0   -9.90   -9.00       15.4       14.4       30.0       30.0       30.0       30.0       30.0       30.0       30.0       30.0       30.0       30.0        0.0        0.0        0.0        0.0        0.0        0.0        0.0        0.0        0.0        0.0        0.0        0.0      6.9       1.4      12.3      16.7      21.1    423.08
     8     6  2024    76     2     328.3     0.0      0.0    0.0    0.0    0.0      0.0      0.0   -9.90      0.1      0.1    100      1.3      1.3   100      1.5     1.5     100      8.3    0.40      0      0      0      0      0    81.9    81.9      0     0.98      1.3      1.3      1.3   100    19.3     4.007    85.0    3.406   34.058     100        2.09    0.000    0.000     328.3     88.3    0.40    88.3     200.0     120.0      89.7      71.4      47.7      40.0    0.000     0.000     0.000     0.000     0.000    0.40     0.00    0.00      0   -9.90   -9.00       13.9       14.4       30.0       30.0       30.0       30.0       30.0       30.0       30.0       30.0       30.0       30.0        0.0        0.0        0.0        0.0        0.0        0.0        0.0        0.0        0.0        0.0        0.0        0.0      0.0       1.4       7.4      12.3      17.2    423.08
     9     6  2024    77     2     325.7     0.0      0.0    0.0    0.0    0.0      0.0      0.0   -9.90      0.3      0.3    100      2.3      2.3   100      2.6     2.6     100      5.8    0.40      5      0      0      0      0    82.1    82.1      7     0.98      2.3      2.3      2.3   100    19.3     4.183    85.0    3.555   35.552     100        2.15    0.000    0.000     325.7     85.7    0.40    85.7     200.0     120.0      93.1      74.2      49.1      40.0    0.000     0.000     0.000     0.000     0.000    0.40     0.00    0.00      0   -9.90   -9.00       11.3       14.4       30.0       30.0       30.0       30.0       30.0       30.0       30.0       30.0       30.0       30.0        0.0        0.0        0.0        0.0        0.0        0.0        0.0        0.0        0.0        0.0        0.0        0.0      0.0       2.6       5.6       9.8      14.1    423.08
    10     6  2024    78     2     321.2     0.0      0.0    0.0    0.0    0.0      0.0      0.0   -9.90      0.4      0.4    100      4.1      4.1   100      4.5     4.5     100      9.2    0.40     19      0      0      0      0    82.3    82.3      0     0.98      4.1      4.1      4.1   100    19.3     4.372    85.0    3.716   37.163     100        2.19    0.000    0.000     321.2     81.2    0.40    81.2     200.0     120.0      97.6      78.0      51.0      40.0    0.000     0.000     0.000     0.000     0.000    0.40     0.00    0.00      0   -9.90   -9.00        9.7       11.6       30.0       30.0       30.0       30.0       30.0       30.0       30.0       30.0       30.0       30.0        0.0        0.0        0.0        0.0        0.0        0.0        0.0        0.0        0.0        0.0        0.0        0.0      0.0       4.1       9.2      13.2      17.1    423.08
    11     6  2024    79     2     317.1     0.0      0.0    0.0    0.0    0.0      0.0      0.0   -9.90      0.4      0.4    100      3.7      3.7   100      4.1     4.1     100     10.1    0.40     33      0      0      0      0    82.4    82.4      0     0.98      3.7      3.7      3.7   100    19.3     4.562    85.0    3.878   38.777     100        2.23    0.000    0.000     317.1     77.1    0.40    77.1     200.0     120.0      96.5      77.1      50.6      40.0    0.000     0.000     0.000     0.000     0.000    0.40     0.00    0.00      0   -9.90   -9.00        9.3       10.1       27.8       30.0       30.0       30.0       30.0       30.0       30.0       30.0       30.0       30.0        0.0        0.0        0.0        0.0        0.0        0.0        0.0        0.0        0.0        0.0        0.0        0.0      0.0       3.8       9.9      14.1      18.2    423.08
    12     6  2024    80     2     313.0     0.0      0.0    0.0    0.0    0.0      0.0      0.0   -9.90      0.5      0.5    100      4.4      3.7    83      4.9     4.1      85     10.4    0.40     74     17      0      0      0    82.4    82.4      0     0.98      4.4      3.7      3.7    83    19.3     4.720    85.0    4.012   40.120      99        2.26    0.000    0.000     313.0     73.0    0.40    73.0     200.0     120.0      98.5      78.8      51.4      40.0    0.000     0.000     0.000     0.000     0.000    0.40     0.00    0.00      0   -9.90   -9.00        8.8       10.0       25.4       28.8       30.0       30.0       30.0       30.0       30.0       30.0       30.0       30.0        0.0        0.0        0.0        0.0        0.0        0.0        0.0        0.0        0.0        0.0        0.0        0.0      0.0       4.5       8.4      14.4      20.4    423.08
    13     6  2024    81     2     360.6    51.6      0.0    0.0   49.3    2.3      0.0      0.0   -9.90      0.2      0.2    100      1.5      1.5   100      1.6     1.6     100     11.5    0.40      0      0      0      0      0    82.6    82.6      0     0.98      1.5      1.5      1.5   100    19.3     4.910    85.0    4.174   41.736      99        2.32    0.000    0.000     360.6    120.6    0.40   120.6     200.0     120.0      90.0      71.7      47.8      40.0    0.000     0.000     0.000     0.000     0.000    0.40     0.00    0.00      0   -9.90   -9.00       48.4       18.1       25.4       28.8       30.0       30.0       30.0       30.0       30.0       30.0       30.0       30.0        0.0        0.0        0.0        0.0        0.0        0.0        0.0        0.0        0.0        0.0        0.0        0.0     51.6       1.5      13.3      15.5      17.6    423.08
    14     6  2024    82     2     357.8     0.5      0.0    0.0    0.5    0.0      0.0      0.0   -9.90      0.3      0.3    100      3.0      3.0   100      3.4     3.4     100     10.7    0.40      0      0      0      0      0    82.7    82.7      0     0.98      3.0      3.0      3.0   100    19.3     5.100    85.0    4.335   43.352      99        2.37    0.000    0.000     357.8    117.8    0.40   117.8     200.0     120.0      94.6      75.5      49.7      40.0    0.000     0.000     0.000     0.000     0.000    0.40     0.00    0.00      0   -9.90   -9.00       31.2       30.7       27.1       28.8       30.0       30.0       30.0       30.0       30.0       30.0       30.0       30.0        0.0        0.0        0.0        0.0        0.0        0.0        0.0        0.0        0.0        0.0        0.0        0.0      0.5       3.1      11.8      14.7      17.6    423.08
    15     6  2024    83     2     353.6     0.0      0.0    0.0    0.0    0.0      0.0      0.0   -9.90      5.0      4.1     82      0.0      0.0   100      5.0     4.1      82      9.8    0.40      0     -9      0      0     -9     0.0     0.0      0    -9.00      0.0      0.0      0.0   100    19.3     5.100    85.0    4.335   43.352      99        2.37    0.000    0.000     353.6    113.6    0.40   113.6     200.0     120.0      94.6      79.0      49.7      40.0    0.000     0.000     0.000     0.000     0.000    0.40     0.00    0.00      0   -9.90   -9.00       26.3       30.4       28.2       28.8       30.0       30.0       30.0       30.0       30.0       30.0       30.0       30.0        0.0        0.0        0.0        0.0        0.0        0.0        0.0        0.0        0.0        0.0        0.0        0.0      0.0       4.6       8.8      13.8      18.9    423.08
    16     6  2024    -9     0     350.7     0.0      0.0    0.0    0.0    0.0      0.0      0.0   -9.90      5.3      2.9     55      0.0      0.0   100      5.3     2.9      55     10.3    0.40      0     -9      0      0     -9     0.0     0.0      0    -9.00      0.0      0.0      0.0   100    19.3     5.100    85.0    4.335   43.352      99        2.37    0.000    0.000     350.7    110.7    0.40   110.7     200.0     120.0      94.6      79.5      49.7      40.0    0.000     0.000     0.000     0.000     0.000    0.40     0.00    0.00      0   -9.90   -9.00       23.3       30.1       28.5       28.8       30.0       30.0       30.0       30.0       30.0       30.0       30.0       30.0        0.0        0.0        0.0        0.0        0.0        0.0        0.0        0.0        0.0        0.0        0.0        0.0      0.0       4.8       8.2      14.3      20.5    423.08
    17     6  2024    -9     0     350.6     2.2      0.0    0.0    2.2    0.0      0.0      0.0   -9.90      2.4      2.4    100      0.0      0.0   100      2.4     2.4     100     11.7    0.40      0     -9      0      0     -9     0.0     0.0      0    -9.00      0.0      0.0      0.0   100    19.3     5.100    85.0    4.335   43.352      99        2.37    0.000    0.000     350.6    110.6    0.40   110.6     200.0     120.0      94.6      73.2      49.7      40.0    0.000     0.000     0.000     0.000     0.000    0.40     0.00    0.00      0   -9.90   -9.00       23.2       30.0       28.6       28.8       30.0       30.0       30.0       30.0       30.0       30.0       30.0       30.0        0.0        0.0        0.0        0.0        0.0        0.0        0.0        0.0        0.0        0.0        0.0        0.0      2.2       2.1      12.8      15.7      18.5    423.08
    18     6  2024    -9     0     346.5     0.0      0.0    0.0    0.0    0.0      0.0      0.0   -9.90      5.5      4.1     75      0.0      0.0   100      5.5     4.1      75     13.6    0.40      0     -9      0      0     -9     0.0     0.0      0    -9.00      0.0      0.0      0.0   100    19.3     5.100    85.0    4.335   43.352      99        2.37    0.000    0.000     346.5    106.5    0.40   106.5     200.0     120.0      94.6      79.9      49.7      40.0    0.000     0.000     0.000     0.000     0.000    0.40     0.00    0.00      0   -9.90   -9.00       19.1       30.0       28.6       28.8       30.0       30.0       30.0       30.0       30.0       30.0       30.0       30.0        0.0        0.0        0.0        0.0        0.0        0.0        0.0        0.0        0.0        0.0        0.0        0.0      0.0       5.0      12.6      17.6      22.7    423.08
    19     6  2024    -9     0     344.3     0.0      0.0    0.0    0.0    0.0      0.0      0.0   -9.90      4.4      2.2     49      0.0      0.0   100      4.4     2.2      49     13.1    0.40      0     -9      0      0     -9     0.0     0.0      0    -9.00      0.0      0.0      0.0   100    19.3     5.100    85.0    4.335   43.352      99        2.37    0.000    0.000     344.3    104.3    0.40   104.3     200.0     120.0      94.6      77.6      49.7      40.0    0.000     0.000     0.000     0.000     0.000    0.40     0.00    0.00      0   -9.90   -9.00       16.9       30.0       28.6       28.8       30.0       30.0       30.0       30.0       30.0       30.0       30.0       30.0        0.0        0.0        0.0        0.0        0.0        0.0        0.0        0.0        0.0        0.0        0.0        0.0      0.0       4.0      12.1      17.1      22.1    423.08
[...]
     2     3  2025    -9     0     365.6     1.2      0.0    0.0    1.2    0.0      1.6      0.0   -9.90      1.0      1.0    100      0.0      0.0   100      1.0     1.0     100      0.0    0.40      0     -9      0      0     -9     0.0     0.0      0    -9.00      0.0      0.0      0.0   100    19.3     5.100    85.0    4.335   43.352      99        2.37    0.000    0.000     365.6    124.3    0.40   124.3     200.0     120.0      94.6      70.2      49.7      40.0    0.000     0.000     0.000     0.000     0.000    0.40     0.00    0.00      0   -9.90   -9.00       30.8       31.7       31.2       30.5       30.4       30.2       30.2       30.1       30.1       30.1       30.1       30.1        0.0        0.0        0.0        0.0        0.0        0.0        0.0        0.0        0.0        0.0        0.0        0.0      1.2       0.9     -11.8      -7.0      -2.2    423.08
     3     3  2025    -9     0     362.1     0.0      0.0    0.0    0.0    0.0      2.6      0.0   -9.90      1.0      0.9     97      0.0      0.0   100      1.0     0.9      97      0.0    0.40      0     -9      0      0     -9     0.0     0.0      0    -9.00      0.0      0.0      0.0   100    19.3     5.100    85.0    4.335   43.352      99        2.37    0.000    0.000     362.1    120.6    0.40   120.6     200.0     120.0      94.6      70.3      49.7      40.0    0.000     0.000     0.000     0.000     0.000    0.40     0.00    0.00      0   -9.90   -9.00       29.3       30.5       30.4       30.4       30.3       30.3       30.2       30.2       30.2       30.1       30.1       30.1        0.0        0.0        0.0        0.0        0.0        0.0        0.0        0.0        0.0        0.0        0.0        0.0      0.0       0.9      -4.5      -1.8       0.9    423.08
     4     3  2025    -9     0     361.1     1.7      0.0    0.0    1.7    0.0      1.7      0.0   -9.90      1.0      1.0    100      0.0      0.0   100      1.0     1.0     100      0.0    0.40      0     -9      0      0     -9     0.0     0.0      0    -9.00      0.0      0.0      0.0   100    19.3     5.100    85.0    4.335   43.352      99        2.37    0.000    0.000     361.1    120.4    0.40   120.4     200.0     120.0      94.6      70.4      49.7      40.0    0.000     0.000     0.000     0.000     0.000    0.40     0.00    0.00      0   -9.90   -9.00       30.0       30.2       30.1       30.1       30.1       30.1       30.1       30.1       30.1       30.1       30.1       30.1        0.0        0.0        0.0        0.0        0.0        0.0        0.0        0.0        0.0        0.0        0.0        0.0      1.7       0.9      -0.1       3.7       7.5    423.08
     5     3  2025    -9     0     369.7    12.0      0.0    0.0   10.7    1.3      0.7      0.0   -9.90      1.3      1.3    100      0.0      0.0   100      1.3     1.3     100      2.6    0.40      0     -9      0      0     -9     0.0     0.0      0    -9.00      0.0      0.0      0.0   100    19.3     5.100    85.0    4.335   43.352      99        2.37    0.000    0.000     369.7    129.5    0.40   129.5     200.0     120.0      94.6      71.0      49.7      40.0    0.000     0.000     0.000     0.000     0.000    0.40     0.00    0.00      0   -9.90   -9.00       39.3       30.1       30.0       30.0       30.0       30.0       30.0       30.0       30.0       30.0       30.0       30.0        0.0        0.0        0.0        0.0        0.0        0.0        0.0        0.0        0.0        0.0        0.0        0.0     12.0       1.2       3.8       6.6       9.4    423.08
     6     3  2025    -9     0     366.4     0.3      0.0    0.0    0.3    0.0      2.1      0.0   -9.90      1.6      1.5     94      0.0      0.0   100      1.6     1.5      94      0.9    0.40      0     -9      0      0     -9     0.0     0.0      0    -9.00      0.0      0.0      0.0   100    19.3     5.100    85.0    4.335   43.352      99        2.37    0.000    0.000     366.4    124.7    0.40   124.7     200.0     120.0      94.6      71.5      49.7      40.0    0.000     0.000     0.000     0.000     0.000    0.40     0.00    0.00      0   -9.90   -9.00       31.2       32.0       31.0       30.6       30.4       30.3       30.2       30.2       30.2       30.1       30.1       30.1        0.0        0.0        0.0        0.0        0.0        0.0        0.0        0.0        0.0        0.0        0.0        0.0      0.3       1.4       1.8       4.9       7.9    423.08
     7     3  2025    -9     0     367.9     5.9      0.0    0.0    5.7    0.2      3.0      0.0   -9.90      1.2      1.2    100      0.0      0.0   100      1.2     1.2     100      0.0    0.40      0     -9      0      0     -9     0.0     0.0      0    -9.00      0.0      0.0      0.0   100    19.3     5.100    85.0    4.335   43.352      99        2.37    0.000    0.000     367.9    126.3    0.40   126.3     200.0     120.0      94.6      70.8      49.7      40.0    0.000     0.000     0.000     0.000     0.000    0.40     0.00    0.00      0   -9.90   -9.00       34.9       30.6       30.5       30.4       30.3       30.3       30.2       30.2       30.2       30.2       30.1       30.1        0.0        0.0        0.0        0.0        0.0        0.0        0.0        0.0        0.0        0.0        0.0        0.0      5.9       1.1      -0.2       3.1       6.5    423.08
     8     3  2025    -9     0     363.9     0.0      0.0    0.0    0.0    0.0      2.8      0.0   -9.90      1.3      1.3    100      0.0      0.0   100      1.3     1.3     100      0.0    0.40      0     -9      0      0     -9     0.0     0.0      0    -9.00      0.0      0.0      0.0   100    19.3     5.100    85.0    4.335   43.352      99        2.37    0.000    0.000     363.9    122.4    0.40   122.4     200.0     120.0      94.6      70.9      49.7      40.0    0.000     0.000     0.000     0.000     0.000    0.40     0.00    0.00      0   -9.90   -9.00       30.2       31.2       30.6       30.4       30.3       30.2       30.2       30.2       30.2       30.1       30.1       30.1        0.0        0.0        0.0        0.0        0.0        0.0        0.0        0.0        0.0        0.0        0.0        0.0      0.0       1.1      -2.2       1.4       5.0    423.08
     9     3  2025    -9     0     360.2     0.0      0.0    0.0    0.0    0.0      2.1      0.0   -9.90      1.6      1.6    100      0.0      0.0   100      1.6     1.6     100      0.0    0.40      0     -9      0      0     -9     0.0     0.0      0    -9.00      0.0      0.0      0.0   100    19.3     5.100    85.0    4.335   43.352      99        2.37    0.000    0.000     360.2    119.2    0.40   119.2     200.0     120.0      94.6      71.7      49.7      40.0    0.000     0.000     0.000     0.000     0.000    0.40     0.00    0.00      0   -9.90   -9.00       28.4       30.4       30.2       30.2       30.2       30.2       30.1       30.1       30.1       30.1       30.1       30.1        0.0        0.0        0.0        0.0        0.0        0.0        0.0        0.0        0.0        0.0        0.0        0.0      0.0       1.5      -1.4       2.8       6.9    423.08
    10     3  2025    -9     0     379.0    27.9      0.0    0.0   21.4    6.5      1.1      0.0   -9.90      1.5      1.5    100      0.0      0.0   100      1.5     1.5     100      1.8    0.40      0     -9      0      0     -9     0.0     0.0      0    -9.00      0.0      0.0      0.0   100    19.3     5.100    85.0    4.335   43.352      99        2.37    0.000    0.000     379.0    138.5    0.40   138.5     200.0     120.0      94.6      71.4      49.7      40.0    0.000     0.000     0.000     0.000     0.000    0.40     0.00    0.00      0   -9.90   -9.00       48.3       30.1       30.1       30.1       30.1       30.1       30.1       30.1       30.1       30.0       30.0       30.0        0.0        0.0        0.0        0.0        0.0        0.0        0.0        0.0        0.0        0.0        0.0        0.0     27.9       1.4       0.2       5.8      11.3    423.08
    11     3  2025    -9     0     374.7     1.4      0.0    0.0    1.4    0.0      4.6      0.0   -9.90      1.0      1.0    100      0.0      0.0   100      1.0     1.0     100      0.0    0.40      0     -9      0      0     -9     0.0     0.0      0    -9.00      0.0      0.0      0.0   100    19.3     5.100    85.0    4.335   43.352      99        2.37    0.000    0.000     374.7    131.2    0.40   131.2     200.0     120.0      94.6      70.4      49.7      40.0    0.000     0.000     0.000     0.000     0.000    0.40     0.00    0.00      0   -9.90   -9.00       33.5       33.7       32.1       32.0       30.8       30.8       30.5       30.4       30.3       30.3       30.2       30.2        0.0        0.0        0.0        0.0        0.0        0.0        0.0        0.0        0.0        0.0        0.0        0.0      1.4       0.9      -4.1      -1.7       0.6    423.08
    12     3  2025    -9     0     366.5     0.0      0.0    0.0    0.0    0.0      6.9      0.0   -9.90      1.4      1.3     97      0.0      0.0   100      1.4     1.3      97      0.0    0.40      0     -9      0      0     -9     0.0     0.0      0    -9.00      0.0      0.0      0.0   100    19.3     5.100    85.0    4.335   43.352      99        2.37    0.000    0.000     366.5    122.8    0.40   122.8     200.0     120.0      94.6      71.1      49.7      40.0    0.000     0.000     0.000     0.000     0.000    0.40     0.00    0.00      0   -9.90   -9.00       29.7       31.1       31.1       30.9       30.8       30.6       30.5       30.5       30.4       30.4       30.3       30.3        0.0        0.0        0.0        0.0        0.0        0.0        0.0        0.0        0.0        0.0        0.0        0.0      0.0       1.2      -1.5       1.9       5.2    423.08
    13     3  2025    -9     0     361.0     0.0      0.0    0.0    0.0    0.0      4.2      0.0   -9.90      1.7      1.4     82      0.0      0.0   100      1.7     1.4      82      1.0    0.40      0     -9      0      0     -9     0.0     0.0      0    -9.00      0.0      0.0      0.0   100    19.3     5.100    85.0    4.335   43.352      99        2.37    0.000    0.000     361.0    119.3    0.40   119.3     200.0     120.0      94.6      71.8      49.7      40.0    0.000     0.000     0.000     0.000     0.000    0.40     0.00    0.00      0   -9.90   -9.00       28.4       30.3       30.3       30.3       30.2       30.2       30.2       30.2       30.2       30.2       30.2       30.2        0.0        0.0        0.0        0.0        0.0        0.0        0.0        0.0        0.0        0.0        0.0        0.0      0.0       1.5       1.5       5.0       8.5    423.08
    14     3  2025    -9     0     362.8     5.1      0.0    0.0    5.1    0.0      1.7      0.0   -9.90      1.5      1.5    100      0.0      0.0   100      1.5     1.5     100      0.0    0.40      0     -9      0      0     -9     0.0     0.0      0    -9.00      0.0      0.0      0.0   100    19.3     5.100    85.0    4.335   43.352      99        2.37    0.000    0.000     362.8    122.2    0.40   122.2     200.0     120.0      94.6      71.4      49.7      40.0    0.000     0.000     0.000     0.000     0.000    0.40     0.00    0.00      0   -9.90   -9.00       31.9       30.1       30.1       30.1       30.1       30.1       30.1       30.1       30.1       30.1       30.1       30.1        0.0        0.0        0.0        0.0        0.0        0.0        0.0        0.0        0.0        0.0        0.0        0.0      5.1       1.4      -0.8       2.8       6.4    423.08
    15     3  2025    -9     0     360.2     0.0      0.0    0.0    0.0    0.0      0.9      0.0   -9.90      1.6      1.6    100      0.0      0.0   100      1.6     1.6     100      1.5    0.40      0     -9      0      0     -9     0.0     0.0      0    -9.00      0.0      0.0      0.0   100    19.3     5.100    85.0    4.335   43.352      99        2.37    0.000    0.000     360.2    119.8    0.40   119.8     200.0     120.0      94.6      71.6      49.7      40.0    0.000     0.000     0.000     0.000     0.000    0.40     0.00    0.00      0   -9.90   -9.00       29.0       30.4       30.2       30.1       30.1       30.1       30.1       30.1       30.0       30.0       30.0       30.0        0.0        0.0        0.0        0.0        0.0        0.0        0.0        0.0        0.0        0.0        0.0        0.0      0.0       1.5       1.8       5.5       9.1    423.08
    16     3  2025    -9     0     357.7     0.0      0.0    0.0    0.0    0.0      0.7      0.0   -9.90      1.9      1.9    100      0.0      0.0   100      1.9     1.9     100      3.1    0.40      0     -9      0      0     -9     0.0     0.0      0    -9.00      0.0      0.0      0.0   100    19.3     5.100    85.0    4.335   43.352      99        2.37    0.000    0.000     357.7    117.3    0.40   117.3     200.0     120.0      94.6      72.2      49.7      40.0    0.000     0.000     0.000     0.000     0.000    0.40     0.00    0.00      0   -9.90   -9.00       27.1       30.1       30.1       30.1       30.1       30.0       30.0       30.0       30.0       30.0       30.0       30.0        0.0        0.0        0.0        0.0        0.0        0.0        0.0        0.0        0.0        0.0        0.0        0.0      0.0       1.7       3.2       7.1      11.0    423.08
    17     3  2025    -9     0     371.2    17.2      0.0    0.0   15.2    2.0      0.4      0.0   -9.90      1.3      1.3    100      0.0      0.0   100      1.3     1.3     100      2.6    0.40      0     -9      0      0     -9     0.0     0.0      0    -9.00      0.0      0.0      0.0   100    19.3     5.100    85.0    4.335   43.352      99        2.37    0.000    0.000     371.2    131.1    0.40   131.1     200.0     120.0      94.6      70.9      49.7      40.0    0.000     0.000     0.000     0.000     0.000    0.40     0.00    0.00      0   -9.90   -9.00       41.0       30.0       30.0       30.0       30.0       30.0       30.0       30.0       30.0       30.0       30.0       30.0        0.0        0.0        0.0        0.0        0.0        0.0        0.0        0.0        0.0        0.0        0.0        0.0     17.2       1.2       3.8       6.6       9.3    423.08
    18     3  2025    -9     0     367.7     0.4      0.0    0.0    0.4    0.0      2.4      0.0   -9.90      1.6      1.5     95      0.0      0.0   100      1.6     1.5      95      2.0    0.40      0     -9      0      0     -9     0.0     0.0      0    -9.00      0.0      0.0      0.0   100    19.3     5.100    85.0    4.335   43.352      99        2.37    0.000    0.000     367.7    125.7    0.40   125.7     200.0     120.0      94.6      71.5      49.7      40.0    0.000     0.000     0.000     0.000     0.000    0.40     0.00    0.00      0   -9.90   -9.00       31.5       32.3       31.2       30.7       30.6       30.4       30.3       30.2       30.2       30.1       30.1       30.1        0.0        0.0        0.0        0.0        0.0        0.0        0.0        0.0        0.0        0.0        0.0        0.0      0.4       1.4       2.6       6.0       9.4    423.08
    19     3  2025    -9     0     363.4     0.3      0.0    0.0    0.3    0.0      3.6      0.0   -9.90      1.0      0.9     99      0.0      0.0   100      1.0     0.9      99      0.0    0.40      0     -9      0      0     -9     0.0     0.0      0    -9.00      0.0      0.0      0.0   100    19.3     5.100    85.0    4.335   43.352      99        2.37    0.000    0.000     363.4    121.3    0.40   121.3     200.0     120.0      94.6      70.2      49.7      40.0    0.000     0.000     0.000     0.000     0.000    0.40     0.00    0.00      0   -9.90   -9.00       29.5       30.7       30.6       30.5       30.4       30.4       30.3       30.3       30.2       30.2       30.2       30.2        0.0        0.0        0.0        0.0        0.0        0.0        0.0        0.0        0.0        0.0        0.0        0.0      0.3       0.9       1.3       3.8       6.2    423.08
    20     3  2025    -9     0     359.9     0.0      0.0    0.0    0.0    0.0      2.4      0.0   -9.90      1.3      1.2     87      0.0      0.0   100      1.3     1.2      87      0.0    0.40      0     -9      0      0     -9     0.0     0.0      0    -9.00      0.0      0.0      0.0   100    19.3     5.100    85.0    4.335   43.352      99        2.37    0.000    0.000     359.9    118.9    0.40   118.9     200.0     120.0      94.6      71.0      49.7      40.0    0.000     0.000     0.000     0.000     0.000    0.40     0.00    0.00      0   -9.90   -9.00       28.4       30.2       30.2       30.2       30.1       30.1       30.1       30.1       30.1       30.1       30.1       30.1        0.0        0.0        0.0        0.0        0.0        0.0        0.0        0.0        0.0        0.0        0.0        0.0      0.0       1.2       0.5       2.4       4.2    423.08
    21     3  2025    -9     0     357.4     0.0      0.0    0.0    0.0    0.0      1.0      0.0   -9.90      1.9      1.4     75      0.0      0.0   100      1.9     1.4      75      0.0    0.40      0     -9      0      0     -9     0.0     0.0      0    -9.00      0.0      0.0      0.0   100    19.3     5.100    85.0    4.335   43.352      99        2.37    0.000    0.000     357.4    117.1    0.40   117.1     200.0     120.0      94.6      72.3      49.7      40.0    0.000     0.000     0.000     0.000     0.000    0.40     0.00    0.00      0   -9.90   -9.00       26.9       30.1       30.1       30.0       30.0       30.0       30.0       30.0       30.0       30.0       30.0       30.0        0.0        0.0        0.0        0.0        0.0        0.0        0.0        0.0        0.0        0.0        0.0        0.0      0.0       1.7      -1.2       2.5       6.2    423.08
    22     3  2025    -9     0     363.9     8.5      0.0    0.0    8.2    0.3      0.3      0.0   -9.90      1.4      1.4    100      0.0      0.0   100      1.4     1.4     100      0.0    0.40      0     -9      0      0     -9     0.0     0.0      0    -9.00      0.0      0.0      0.0   100    19.3     5.100    85.0    4.335   43.352      99        2.37    0.000    0.000     363.9    123.8    0.40   123.8     200.0     120.0      94.6      71.1      49.7      40.0    0.000     0.000     0.000     0.000     0.000    0.40     0.00    0.00      0   -9.90   -9.00       33.8       30.0       30.0       30.0       30.0       30.0       30.0       30.0       30.0       30.0       30.0       30.0        0.0        0.0        0.0        0.0        0.0        0.0        0.0        0.0        0.0        0.0        0.0        0.0      8.5       1.3      -1.8       2.3       6.4    423.08
    23     3  2025    -9     0     378.6    21.4      0.0    0.0   16.7    4.7      0.8      0.0   -9.90      1.2      1.2    100      0.0      0.0   100      1.2     1.2     100      2.1    0.40      0     -9      0      0     -9     0.0     0.0      0    -9.00      0.0      0.0      0.0   100    19.3     5.100    85.0    4.335   43.352      99        2.37    0.000    0.000     378.6    138.1    0.40   138.1     200.0     120.0      94.6      70.8      49.7      40.0    0.000     0.000     0.000     0.000     0.000    0.40     0.00    0.00      0   -9.90   -9.00       46.6       30.8       30.4       30.2       30.1       30.1       30.1       30.1       30.1       30.0       30.0       30.0        0.0        0.0        0.0        0.0        0.0        0.0        0.0        0.0        0.0        0.0        0.0        0.0     21.4       1.1       2.6       6.1       9.7    423.08
