AquaCrop 7.2 (August 2024) - Output created on (date) : 03-12-2024   at (time) : 16:13:30

    RunNr     Day1   Month1    Year1     Rain      ETo       GD     CO2      Irri   Infilt   Runoff    Drain   Upflow        E     E/Ex       Tr      TrW   Tr/Trx    SaltIn   SaltOut    SaltUp  SaltProf     Cycle   SaltStr  FertStr  WeedStr  TempStr   ExpStr   StoStr  BioMass  Brelative   HI    Y(dry)  Y(fresh)    WPet      Bin     Bout     DayN   MonthN    YearN
                                           mm       mm  degC.day    ppm        mm       mm       mm       mm       mm       mm        %       mm       mm        %    ton/ha    ton/ha    ton/ha    ton/ha      days       %        %        %        %        %        %    ton/ha        %       %    ton/ha   ton/ha    kg/m3   ton/ha   ton/ha
   Tot(1)       30        5     2024   1039.0    555.6   1809.6   423.08      0.0   1014.3     24.7    505.1      0.0    434.5       81     72.1     72.1      100     0.000     0.000     0.000     0.000       40        0        0        0        0        0        0     3.865      100     84.9    3.282   32.819     2.19    0.000    0.000       19        3     2025  placename.PRM
