AquaCrop 7.2 (August 2024) - Output created on (date) : 04-12-2024   at (time) : 14:10:47

   Run:   1
   Day Month  Year   DAP Stage   WC(1.20)   Rain     Irri   Surf   Infilt   RO    Drain       CR    Zgwt       Ex       E     E/Ex     Trx       Tr  Tr/Trx    ETx      ET  ET/ETx      GD       Z     StExp  StSto  StSen StSalt StWeed   CC      CCw     StTr  Kc(Tr)     Trx       Tr      TrW  Tr/Trx   WP    Biomass     HI    Y(dry)  Y(fresh)  Brelative    WPet      Bin     Bout  WC(1.20) Wr(0.40)     Z       Wr    Wr(SAT)    Wr(FC)   Wr(exp)   Wr(sto)   Wr(sen)   Wr(PWP)    SaltIn    SaltOut   SaltUp   Salt(1.20)  SaltZ     Z       ECe    ECsw   StSalt  Zgwt    ECgw       WC01       WC 2       WC 3       WC 4       WC 5       WC 6       WC 7       WC 8       WC 9       WC10       WC11       WC12      ECe01      ECe 2      ECe 3      ECe 4      ECe 5      ECe 6      ECe 7      ECe 8      ECe 9      ECe10      ECe11      ECe12     Rain       ETo      Tmin      Tavg      Tmax      CO2
                                      mm      mm       mm     mm     mm     mm       mm       mm      m        mm       mm     %        mm       mm    %        mm      mm       %  degC-day     m       %      %      %      %      %      %       %       %       -        mm       mm       mm    %     g/m2    ton/ha      %    ton/ha   ton/ha       %       kg/m3   ton/ha   ton/ha      mm       mm       m       mm        mm        mm        mm        mm        mm         mm    ton/ha    ton/ha    ton/ha    ton/ha    ton/ha     m      dS/m    dS/m      %     m      dS/m       0.05       0.15       0.25       0.35       0.45       0.55       0.65       0.75       0.85       0.95       1.05       1.15       0.05       0.15       0.25       0.35       0.45       0.55       0.65       0.75       0.85       0.95       1.05       1.15       mm        mm     degC      degC      degC       ppm
    30     5  2024     1     1     360.5     4.3      0.0    0.0    4.3    0.0      0.0      0.0   -9.90      3.7      3.7    100      0.1      0.1   100      3.8     3.8     100      8.1    0.30     -9      0      0      0      0     1.1     1.1      0     0.02      0.1      0.1      0.1   100    19.3     0.004    -9.9    0.000    0.000     100        0.00    0.000    0.000     360.5    120.5    0.30    90.5     150.0      90.0      71.7      57.2      37.6      30.0    0.000     0.000     0.000     0.000     0.000    0.30     0.00    0.00      0   -9.90   -9.00       30.5       30.0       30.0       30.0       30.0       30.0       30.0       30.0       30.0       30.0       30.0       30.0        0.0        0.0        0.0        0.0        0.0        0.0        0.0        0.0        0.0        0.0        0.0        0.0      4.3       3.4       7.1      12.1      17.2    423.08
    31     5  2024     2     2     357.3     0.2      0.0    0.0    0.2    0.0      0.1      0.0   -9.90      3.7      3.2     88      0.1      0.1   100      3.8     3.3      88      7.1    0.30     -9      0      0      0      0     1.3     1.3      0     0.02      0.1      0.1      0.1   100    19.3     0.009    45.2    0.004    0.038     100        0.05    0.000    0.000     357.3    117.2    0.30    87.2     150.0      90.0      71.7      57.2      37.6      30.0    0.000     0.000     0.000     0.000     0.000    0.30     0.00    0.00      0   -9.90   -9.00       27.0       30.1       30.1       30.0       30.0       30.0       30.0       30.0       30.0       30.0       30.0       30.0        0.0        0.0        0.0        0.0        0.0        0.0        0.0        0.0        0.0        0.0        0.0        0.0      0.2       3.4       6.8      11.1      15.4    423.08
     1     6  2024     3     2     354.0     0.5      0.0    0.0    0.5    0.0      0.1      0.0   -9.90      4.0      3.5     87      0.1      0.1   100      4.1     3.6      87      8.2    0.30      0      0      0      0      0     1.5     1.5      0     0.03      0.1      0.1      0.1   100    19.3     0.014    60.3    0.008    0.083     100        0.08    0.000    0.000     354.0    114.0    0.30    83.9     150.0      90.0      72.3      57.7      37.9      30.0    0.000     0.000     0.000     0.000     0.000    0.30     0.00    0.00      0   -9.90   -9.00       23.9       30.0       30.0       30.0       30.0       30.0       30.0       30.0       30.0       30.0       30.0       30.0        0.0        0.0        0.0        0.0        0.0        0.0        0.0        0.0        0.0        0.0        0.0        0.0      0.5       3.7       7.3      12.2      17.1    423.08
     2     6  2024     4     2     355.2     4.3      0.0    0.0    4.3    0.0      0.1      0.0   -9.90      3.0      3.0    100      0.1      0.1   100      3.1     3.1     100      7.1    0.32      0      0      0      0      0     1.7     1.7      0     0.03      0.1      0.1      0.1   100    19.3     0.020    67.8    0.013    0.133     100        0.10    0.000    0.000     355.2    115.1    0.32    90.0     158.0      94.8      74.1      59.1      39.0      31.6    0.000     0.000     0.000     0.000     0.000    0.32     0.00    0.00      0   -9.90   -9.00       25.1       30.0       30.0       30.0       30.0       30.0       30.0       30.0       30.0       30.0       30.0       30.0        0.0        0.0        0.0        0.0        0.0        0.0        0.0        0.0        0.0        0.0        0.0        0.0      4.3       2.8       7.2      11.1      15.1    423.08
     3     6  2024     5     2     358.8     6.4      0.0    0.0    6.3    0.0      0.0      0.0   -9.90      2.6      2.6    100      0.1      0.1   100      2.7     2.7     100      7.9    0.33      0      0      0      0      0     1.9     1.9      0     0.04      0.1      0.1      0.1   100    19.3     0.027    72.2    0.019    0.191     100        0.12    0.000    0.000     358.8    118.8    0.33    99.0     167.1     100.3      77.4      61.8      40.9      33.4    0.000     0.000     0.000     0.000     0.000    0.33     0.00    0.00      0   -9.90   -9.00       28.8       30.0       30.0       30.0       30.0       30.0       30.0       30.0       30.0       30.0       30.0       30.0        0.0        0.0        0.0        0.0        0.0        0.0        0.0        0.0        0.0        0.0        0.0        0.0      6.4       2.4       8.8      11.9      15.0    423.08
     4     6  2024     6     2     365.9    10.9      0.0    0.0   10.1    0.8      0.0      0.0   -9.90      2.8      2.8    100      0.1      0.1   100      2.9     2.9     100      8.4    0.35      0      0      0      0      0     2.2     2.2      0     0.04      0.1      0.1      0.1   100    19.3     0.034    75.1    0.026    0.258     100        0.13    0.000    0.000     365.9    125.9    0.35   111.5     176.0     105.6      82.2      65.6      43.3      35.2    0.000     0.000     0.000     0.000     0.000    0.35     0.00    0.00      0   -9.90   -9.00       35.9       30.0       30.0       30.0       30.0       30.0       30.0       30.0       30.0       30.0       30.0       30.0        0.0        0.0        0.0        0.0        0.0        0.0        0.0        0.0        0.0        0.0        0.0        0.0     10.9       2.7       8.6      12.4      16.1    423.08
     5     6  2024     7     2     363.3     2.5      0.0    0.0    2.5    0.0      1.1      0.0   -9.90      3.9      3.8     98      0.2      0.2   100      4.1     4.0      98      9.2    0.37      0      0      0      0      0     2.6     2.6      0     0.05      0.2      0.2      0.2   100    19.3     0.044    77.2    0.034    0.337     100        0.14    0.000    0.000     363.3    122.3    0.37   113.2     185.2     111.1      89.2      71.2      46.7      37.0    0.000     0.000     0.000     0.000     0.000    0.37     0.00    0.00      0   -9.90   -9.00       29.6       31.2       31.0       30.5       30.3       30.2       30.1       30.1       30.1       30.1       30.1       30.1        0.0        0.0        0.0        0.0        0.0        0.0        0.0        0.0        0.0        0.0        0.0        0.0      2.5       3.7       8.2      13.2      18.1    423.08
     6     6  2024     8     2     359.2     1.4      0.0    0.0    1.4    0.0      1.8      0.0   -9.90      3.6      3.4     95      0.2      0.2   100      3.8     3.6      95      9.6    0.39      0      0      0      0      0     3.1     3.1      0     0.06      0.2      0.2      0.2   100    19.3     0.055    78.8    0.043    0.430     100        0.16    0.000    0.000     359.2    118.2    0.39   114.8     194.2     116.5      92.8      74.1      48.7      38.8    0.000     0.000     0.000     0.000     0.000    0.39     0.00    0.00      0   -9.90   -9.00       27.3       30.4       30.3       30.2       30.2       30.2       30.1       30.1       30.1       30.1       30.1       30.1        0.0        0.0        0.0        0.0        0.0        0.0        0.0        0.0        0.0        0.0        0.0        0.0      1.4       3.5       9.3      13.6      17.9    423.08
     7     6  2024     9     2     362.2     7.7      0.0    0.0    7.5    0.2      1.2      0.0   -9.90      3.1      3.1    100      0.2      0.2   100      3.3     3.3     100      9.3    0.40      0      0      0      0      0     3.7     3.7      0     0.07      0.2      0.2      0.2   100    19.3     0.068    80.0    0.054    0.540     100        0.18    0.000    0.000     362.2    121.8    0.40   121.8     200.0     120.0      94.4      75.3      49.6      40.0    0.000     0.000     0.000     0.000     0.000    0.40     0.00    0.00      0   -9.90   -9.00       31.5       30.1       30.1       30.1       30.1       30.1       30.1       30.1       30.1       30.1       30.0       30.0        0.0        0.0        0.0        0.0        0.0        0.0        0.0        0.0        0.0        0.0        0.0        0.0      7.7       3.0       9.4      13.3      17.2    423.08
     8     6  2024    10     2     363.0     5.1      0.0    0.0    5.0    0.1      0.8      0.0   -9.90      3.2      3.2    100      0.2      0.2   100      3.4     3.4     100      9.6    0.40      0      0      0      0      0     4.3     4.3      0     0.08      0.2      0.2      0.2   100    19.3     0.083    80.9    0.067    0.670     100        0.20    0.000    0.000     363.0    122.7    0.40   122.7     200.0     120.0      94.6      75.5      49.7      40.0    0.000     0.000     0.000     0.000     0.000    0.40     0.00    0.00      0   -9.90   -9.00       32.0       30.4       30.2       30.1       30.1       30.1       30.1       30.0       30.0       30.0       30.0       30.0        0.0        0.0        0.0        0.0        0.0        0.0        0.0        0.0        0.0        0.0        0.0        0.0      5.1       3.1       9.4      13.6      17.9    423.08
     9     6  2024    11     2     360.0     1.6      0.0    0.0    1.6    0.0      0.9      0.0   -9.90      3.5      3.4     96      0.3      0.3   100      3.8     3.7      96      9.3    0.40      0      0      0      0      0     5.1     5.1      0     0.09      0.3      0.3      0.3   100    19.3     0.101    81.6    0.082    0.822     100        0.22    0.000    0.000     360.0    119.5    0.40   119.5     200.0     120.0      95.7      76.4      50.2      40.0    0.000     0.000     0.000     0.000     0.000    0.40     0.00    0.00      0   -9.90   -9.00       28.5       30.5       30.3       30.2       30.1       30.1       30.1       30.1       30.1       30.0       30.0       30.0        0.0        0.0        0.0        0.0        0.0        0.0        0.0        0.0        0.0        0.0        0.0        0.0      1.6       3.5       8.8      13.3      17.9    423.08
    10     6  2024    12     2     358.5     3.2      0.0    0.0    3.2    0.0      0.8      0.0   -9.90      3.6      3.6    100      0.4      0.4   100      4.0     4.0     100     10.0    0.40      0      0      0      0      0     6.1     6.1      0     0.11      0.4      0.4      0.4   100    19.3     0.122    82.2    0.100    1.003     100        0.24    0.000    0.000     358.5    118.1    0.40   118.1     200.0     120.0      96.1      76.7      50.4      40.0    0.000     0.000     0.000     0.000     0.000    0.40     0.00    0.00      0   -9.90   -9.00       27.8       30.2       30.1       30.1       30.1       30.1       30.1       30.0       30.0       30.0       30.0       30.0        0.0        0.0        0.0        0.0        0.0        0.0        0.0        0.0        0.0        0.0        0.0        0.0      3.2       3.6       9.4      14.0      18.5    423.08
    11     6  2024    13     2     358.4     4.1      0.0    0.0    4.1    0.0      0.4      0.0   -9.90      3.3      3.3    100      0.4      0.4   100      3.8     3.8     100      9.9    0.40      0      0      0      0      0     7.3     7.3      0     0.13      0.4      0.4      0.4   100    19.3     0.147    82.7    0.122    1.217     100        0.27    0.000    0.000     358.4    118.2    0.40   118.2     200.0     120.0      95.5      76.3      50.1      40.0    0.000     0.000     0.000     0.000     0.000    0.40     0.00    0.00      0   -9.90   -9.00       28.1       30.1       30.0       30.0       30.0       30.0       30.0       30.0       30.0       30.0       30.0       30.0        0.0        0.0        0.0        0.0        0.0        0.0        0.0        0.0        0.0        0.0        0.0        0.0      4.1       3.4       9.7      13.9      18.2    423.08
    12     6  2024    14     2     356.1     1.5      0.0    0.0    1.5    0.0      0.2      0.0   -9.90      3.2      3.1     96      0.5      0.5   100      3.7     3.6      97      9.8    0.40      0      0      0      0      0     8.7     8.7      0     0.15      0.5      0.5      0.5   100    19.3     0.177    83.1    0.147    1.470     100        0.30    0.000    0.000     356.1    116.0    0.40   116.0     200.0     120.0      95.5      76.2      50.1      40.0    0.000     0.000     0.000     0.000     0.000    0.40     0.00    0.00      0   -9.90   -9.00       26.0       30.0       30.0       30.0       30.0       30.0       30.0       30.0       30.0       30.0       30.0       30.0        0.0        0.0        0.0        0.0        0.0        0.0        0.0        0.0        0.0        0.0        0.0        0.0      1.5       3.4      10.0      13.8      17.6    423.08
    13     6  2024    15     2     353.8     1.5      0.0    0.0    1.5    0.0      0.1      0.0   -9.90      3.2      3.1     95      0.6      0.6   100      3.9     3.7      95      9.5    0.40      0      0      0      0      0    10.3    10.3      0     0.18      0.6      0.6      0.6   100    19.3     0.212    83.4    0.177    1.767     100        0.34    0.000    0.000     353.8    113.8    0.40   113.8     200.0     120.0      95.9      76.5      50.3      40.0    0.000     0.000     0.000     0.000     0.000    0.40     0.00    0.00      0   -9.90   -9.00       23.7       30.0       30.0       30.0       30.0       30.0       30.0       30.0       30.0       30.0       30.0       30.0        0.0        0.0        0.0        0.0        0.0        0.0        0.0        0.0        0.0        0.0        0.0        0.0      1.5       3.5       9.4      13.5      17.7    423.08
    14     6  2024    16     2     356.0     6.3      0.0    0.0    6.2    0.0      0.0      0.0   -9.90      3.2      3.2    100      0.8      0.8   100      4.0     4.0     100     10.4    0.40      0      0      0      0      0    12.4    12.4      0     0.22      0.8      0.8      0.8   100    19.3     0.253    83.7    0.212    2.120     100        0.38    0.000    0.000     356.0    116.0    0.40   116.0     200.0     120.0      96.1      76.7      50.4      40.0    0.000     0.000     0.000     0.000     0.000    0.40     0.00    0.00      0   -9.90   -9.00       26.0       30.0       30.0       30.0       30.0       30.0       30.0       30.0       30.0       30.0       30.0       30.0        0.0        0.0        0.0        0.0        0.0        0.0        0.0        0.0        0.0        0.0        0.0        0.0      6.3       3.6       9.8      14.4      19.1    423.08
    15     6  2024    17     2     357.3     5.3      0.0    0.0    5.3    0.0      0.0      0.0   -9.90      3.1      3.1    100      0.9      0.9   100      4.0     4.0     100     10.2    0.40      0      0      0      0      0    14.9    14.9      0     0.25      0.9      0.9      0.9   100    19.3     0.303    83.9    0.254    2.538     100        0.42    0.000    0.000     357.3    117.3    0.40   117.3     200.0     120.0      96.2      76.8      50.4      40.0    0.000     0.000     0.000     0.000     0.000    0.40     0.00    0.00      0   -9.90   -9.00       27.3       30.0       30.0       30.0       30.0       30.0       30.0       30.0       30.0       30.0       30.0       30.0        0.0        0.0        0.0        0.0        0.0        0.0        0.0        0.0        0.0        0.0        0.0        0.0      5.3       3.7       9.8      14.2      18.6    423.08
    16     6  2024    18     2     357.1     3.3      0.0    0.0    3.3    0.0      0.0      0.0   -9.90      2.6      2.6    100      1.0      1.0   100      3.5     3.5     100     10.1    0.40      0      0      0      0      0    17.8    17.8      0     0.30      1.0      1.0      1.0   100    19.3     0.360    84.1    0.303    3.029     100        0.47    0.000    0.000     357.1    117.1    0.40   117.1     200.0     120.0      95.0      75.8      49.9      40.0    0.000     0.000     0.000     0.000     0.000    0.40     0.00    0.00      0   -9.90   -9.00       27.1       30.0       30.0       30.0       30.0       30.0       30.0       30.0       30.0       30.0       30.0       30.0        0.0        0.0        0.0        0.0        0.0        0.0        0.0        0.0        0.0        0.0        0.0        0.0      3.3       3.2       9.8      14.1      18.4    423.08
    17     6  2024    19     2     355.0     2.1      0.0    0.0    2.1    0.0      0.0      0.0   -9.90      2.9      2.9     98      1.4      1.4   100      4.3     4.3      99     10.1    0.40      0      0      0      0      0    21.3    21.3      0     0.35      1.4      1.4      1.4   100    19.3     0.428    84.2    0.361    3.605     100        0.53    0.000    0.000     355.0    115.0    0.40   115.0     200.0     120.0      96.9      77.5      50.7      40.0    0.000     0.000     0.000     0.000     0.000    0.40     0.00    0.00      0   -9.90   -9.00       25.0       30.0       30.0       30.0       30.0       30.0       30.0       30.0       30.0       30.0       30.0       30.0        0.0        0.0        0.0        0.0        0.0        0.0        0.0        0.0        0.0        0.0        0.0        0.0      2.1       3.9       9.6      14.1      18.6    423.08
    18     6  2024    20     2     356.2     4.6      0.0    0.0    4.6    0.0      0.0      0.0   -9.90      2.1      2.1    100      1.3      1.3   100      3.3     3.3     100     10.4    0.40      0      0      0      0      0    25.6    25.6      0     0.41      1.3      1.3      1.3   100    19.3     0.508    84.3    0.428    4.282     100        0.60    0.000    0.000     356.2    116.2    0.40   116.2     200.0     120.0      94.4      75.4      49.7      40.0    0.000     0.000     0.000     0.000     0.000    0.40     0.00    0.00      0   -9.90   -9.00       26.2       30.0       30.0       30.0       30.0       30.0       30.0       30.0       30.0       30.0       30.0       30.0        0.0        0.0        0.0        0.0        0.0        0.0        0.0        0.0        0.0        0.0        0.0        0.0      4.6       3.0      10.7      14.4      18.1    423.08
    19     6  2024    21     2     354.3     2.1      0.0    0.0    2.1    0.0      0.0      0.0   -9.90      2.3      2.3    100      1.8      1.8   100      4.1     4.1     100     10.8    0.40      0      0      0      0      0    31.0    31.0      0     0.48      1.8      1.8      1.8   100    19.3     0.601    84.4    0.508    5.076     100        0.67    0.000    0.000     354.3    114.3    0.40   114.3     200.0     120.0      96.5      77.0      50.5      40.0    0.000     0.000     0.000     0.000     0.000    0.40     0.00    0.00      0   -9.90   -9.00       24.3       30.0       30.0       30.0       30.0       30.0       30.0       30.0       30.0       30.0       30.0       30.0        0.0        0.0        0.0        0.0        0.0        0.0        0.0        0.0        0.0        0.0        0.0        0.0      2.1       3.8      10.3      14.8      19.1    423.08
    20     6  2024    22     2     350.9     1.2      0.0    0.0    1.2    0.0      0.0      0.0   -9.90      2.2      2.2     98      2.4      2.4   100      4.6     4.5      99     10.9    0.40      0      0      0      0      0    37.7    37.7      0     0.57      2.4      2.4      2.4   100    19.3     0.710    84.5    0.600    6.005     100        0.75    0.000    0.000     350.9    110.9    0.40   110.9     200.0     120.0      97.7      78.1      51.1      40.0    0.000     0.000     0.000     0.000     0.000    0.40     0.00    0.00      0   -9.90   -9.00       20.9       30.0       30.0       30.0       30.0       30.0       30.0       30.0       30.0       30.0       30.0       30.0        0.0        0.0        0.0        0.0        0.0        0.0        0.0        0.0        0.0        0.0        0.0        0.0      1.2       4.2      10.1      14.9      19.8    423.08
    21     6  2024    23     2     347.8     0.9      0.0    0.0    0.9    0.0      0.0      0.0   -9.90      1.6      1.6     98      2.5      2.5   100      4.1     4.1      99     11.3    0.40      0      0      0      0      0    45.7    45.7      0     0.66      2.5      2.5      2.5   100    19.3     0.837    84.6    0.708    7.083     100        0.84    0.000    0.000     347.8    107.8    0.40   107.8     200.0     120.0      96.5      77.1      50.6      40.0    0.000     0.000     0.000     0.000     0.000    0.40     0.00    0.00      0   -9.90   -9.00       17.8       30.0       30.0       30.0       30.0       30.0       30.0       30.0       30.0       30.0       30.0       30.0        0.0        0.0        0.0        0.0        0.0        0.0        0.0        0.0        0.0        0.0        0.0        0.0      0.9       3.8      10.4      15.3      20.1    423.08
    22     6  2024    24     2     345.1     1.5      0.0    0.0    1.5    0.0      0.0      0.0   -9.90      1.4      1.4    100      2.8      2.8   100      4.2     4.2     100     11.3    0.40      0      0      0      0      0    52.7    52.7      0     0.73      2.8      2.8      2.8   100    19.3     0.978    84.7    0.828    8.280     100        0.94    0.000    0.000     345.1    105.1    0.40   105.1     200.0     120.0      96.7      77.2      50.6      40.0    0.000     0.000     0.000     0.000     0.000    0.40     0.00    0.00      0   -9.90   -9.00       15.1       30.0       30.0       30.0       30.0       30.0       30.0       30.0       30.0       30.0       30.0       30.0        0.0        0.0        0.0        0.0        0.0        0.0        0.0        0.0        0.0        0.0        0.0        0.0      1.5       3.8      10.8      15.3      19.8    423.08
    23     6  2024    25     2     347.6     6.0      0.0    0.0    6.0    0.0      0.0      0.0   -9.90      1.0      1.0    100      2.5      2.5   100      3.5     3.5     100     11.3    0.40      0      0      0      0      0    58.5    58.5      0     0.78      2.5      2.5      2.5   100    19.3     1.130    84.7    0.957    9.569     100        1.04    0.000    0.000     347.6    107.6    0.40   107.6     200.0     120.0      94.9      75.7      49.9      40.0    0.000     0.000     0.000     0.000     0.000    0.40     0.00    0.00      0   -9.90   -9.00       17.6       30.0       30.0       30.0       30.0       30.0       30.0       30.0       30.0       30.0       30.0       30.0        0.0        0.0        0.0        0.0        0.0        0.0        0.0        0.0        0.0        0.0        0.0        0.0      6.0       3.2      10.6      15.3      20.1    423.08
    24     6  2024    26     2     344.1     0.1      0.0    0.0    0.1    0.0      0.0      0.0   -9.90      0.9      0.6     65      3.0      3.0   100      3.9     3.6      92     11.3    0.40      0      0      0      0      0    63.2    63.2      0     0.83      3.0      3.0      3.0   100    19.3     1.290    84.7    1.093   10.927     100        1.14    0.000    0.000     344.1    104.1    0.40   104.1     200.0     120.0      96.1      76.7      50.4      40.0    0.000     0.000     0.000     0.000     0.000    0.40     0.00    0.00      0   -9.90   -9.00       14.1       30.0       30.0       30.0       30.0       30.0       30.0       30.0       30.0       30.0       30.0       30.0        0.0        0.0        0.0        0.0        0.0        0.0        0.0        0.0        0.0        0.0        0.0        0.0      0.1       3.6      11.0      15.3      19.7    423.08
    25     6  2024    27     2     344.4     4.2      0.0    0.0    4.2    0.0      0.0      0.0   -9.90      0.8      0.8    100      3.1      3.1   100      3.9     3.9     100     12.2    0.40      0      0      0      0      0    67.3    67.3      0     0.86      3.1      3.1      3.1   100    19.3     1.456    84.8    1.234   12.344     100        1.24    0.000    0.000     344.4    104.4    0.40   104.4     200.0     120.0      95.9      76.6      50.3      40.0    0.000     0.000     0.000     0.000     0.000    0.40     0.00    0.00      0   -9.90   -9.00       14.4       30.0       30.0       30.0       30.0       30.0       30.0       30.0       30.0       30.0       30.0       30.0        0.0        0.0        0.0        0.0        0.0        0.0        0.0        0.0        0.0        0.0        0.0        0.0      4.2       3.6      11.9      16.2      20.5    423.08
    26     6  2024    28     2     343.5     2.6      0.0    0.0    2.6    0.0      0.0      0.0   -9.90      0.6      0.6    100      2.8      2.8   100      3.4     3.4     100     12.4    0.40      0      0      0      0      0    70.6    70.6      0     0.89      2.8      2.8      2.8   100    19.3     1.628    84.8    1.381   13.807     100        1.34    0.000    0.000     343.5    103.5    0.40   103.5     200.0     120.0      94.8      75.7      49.8      40.0    0.000     0.000     0.000     0.000     0.000    0.40     0.00    0.00      0   -9.90   -9.00       13.5       30.0       30.0       30.0       30.0       30.0       30.0       30.0       30.0       30.0       30.0       30.0        0.0        0.0        0.0        0.0        0.0        0.0        0.0        0.0        0.0        0.0        0.0        0.0      2.6       3.2      12.8      16.4      20.1    423.08
    27     6  2024    29     2     342.0     1.7      0.0    0.0    1.7    0.0      0.0      0.0   -9.90      0.5      0.5    100      2.7      2.7   100      3.3     3.3     100     12.4    0.40      0      0      0      0      0    73.3    73.3      0     0.91      2.7      2.7      2.7   100    19.3     1.805    84.8    1.531   15.305     100        1.44    0.000    0.000     342.0    102.0    0.40   102.0     200.0     120.0      94.3      75.3      49.6      40.0    0.000     0.000     0.000     0.000     0.000    0.40     0.00    0.00      0   -9.90   -9.00       12.0       30.0       30.0       30.0       30.0       30.0       30.0       30.0       30.0       30.0       30.0       30.0        0.0        0.0        0.0        0.0        0.0        0.0        0.0        0.0        0.0        0.0        0.0        0.0      1.7       3.0      12.6      16.4      20.3    423.08
    28     6  2024    30     2     342.7     4.2      0.0    0.0    4.2    0.0      0.0      0.0   -9.90      0.5      0.5    100      3.0      3.0   100      3.5     3.5     100     13.2    0.40      0      0      0      0      0    75.6    75.6      0     0.93      3.0      3.0      3.0   100    19.3     1.984    84.8    1.683   16.834     100        1.54    0.000    0.000     342.7    102.7    0.40   102.7     200.0     120.0      94.9      75.7      49.9      40.0    0.000     0.000     0.000     0.000     0.000    0.40     0.00    0.00      0   -9.90   -9.00       12.7       30.0       30.0       30.0       30.0       30.0       30.0       30.0       30.0       30.0       30.0       30.0        0.0        0.0        0.0        0.0        0.0        0.0        0.0        0.0        0.0        0.0        0.0        0.0      4.2       3.2      12.8      17.2      21.6    423.08
    29     6  2024    31     2     339.6     0.9      0.0    0.0    0.9    0.0      0.0      0.0   -9.90      0.5      0.5    100      3.5      3.5   100      4.0     4.0     100     14.0    0.40      0      0      0      0      0    77.5    77.5      0     0.95      3.5      3.5      3.5   100    19.3     2.167    84.8    1.839   18.386     100        1.62    0.000    0.000     339.6     99.6    0.40    99.6     200.0     120.0      96.2      76.9      50.4      40.0    0.000     0.000     0.000     0.000     0.000    0.40     0.00    0.00      0   -9.90   -9.00        9.9       29.7       30.0       30.0       30.0       30.0       30.0       30.0       30.0       30.0       30.0       30.0        0.0        0.0        0.0        0.0        0.0        0.0        0.0        0.0        0.0        0.0        0.0        0.0      0.9       3.7      14.0      18.0      22.1    423.08
    30     6  2024    32     2     337.0     1.5      0.0    0.0    1.5    0.0      0.0      0.0   -9.90      0.5      0.5    100      3.6      3.6   100      4.1     4.1     100     13.7    0.40      0      0      0      0      0    79.0    79.0      0     0.96      3.6      3.6      3.6   100    19.3     2.352    84.9    1.996   19.957     100        1.70    0.000    0.000     337.0     97.0    0.40    97.0     200.0     120.0      96.5      77.1      50.6      40.0    0.000     0.000     0.000     0.000     0.000    0.40     0.00    0.00      0   -9.90   -9.00        9.6       27.3       30.0       30.0       30.0       30.0       30.0       30.0       30.0       30.0       30.0       30.0        0.0        0.0        0.0        0.0        0.0        0.0        0.0        0.0        0.0        0.0        0.0        0.0      1.5       3.8      13.8      17.7      21.5    423.08
     1     7  2024    33     2     337.1     3.9      0.0    0.0    3.9    0.0      0.0      0.0   -9.90      0.4      0.4    100      3.3      3.3   100      3.7     3.7     100     13.0    0.40      0      0      0      0      0    80.0    80.0      0     0.96      3.3      3.3      3.3   100    19.3     2.538    84.9    2.154   21.541     100        1.78    0.000    0.000     337.1     97.1    0.40    97.1     200.0     120.0      95.5      76.2      50.1      40.0    0.000     0.000     0.000     0.000     0.000    0.40     0.00    0.00      0   -9.90   -9.00        9.8       27.3       30.0       30.0       30.0       30.0       30.0       30.0       30.0       30.0       30.0       30.0        0.0        0.0        0.0        0.0        0.0        0.0        0.0        0.0        0.0        0.0        0.0        0.0      3.9       3.4      13.4      17.0      20.7    423.08
     2     7  2024    34     2     343.5    10.5      0.0    0.0   10.5    0.0      0.0      0.0   -9.90      0.4      0.4    100      3.7      3.7   100      4.1     4.1     100     12.9    0.40      0      0      0      0      0    80.9    80.9      0     0.97      3.7      3.7      3.7   100    19.3     2.726    84.9    2.314   23.135     100        1.84    0.000    0.000     343.5    103.5    0.40   103.5     200.0     120.0      96.5      77.1      50.6      40.0    0.000     0.000     0.000     0.000     0.000    0.40     0.00    0.00      0   -9.90   -9.00       16.3       27.3       30.0       30.0       30.0       30.0       30.0       30.0       30.0       30.0       30.0       30.0        0.0        0.0        0.0        0.0        0.0        0.0        0.0        0.0        0.0        0.0        0.0        0.0     10.5       3.8      12.4      16.9      21.3    423.08
     3     7  2024    35     2     339.4     0.5      0.0    0.0    0.5    0.0      0.0      0.0   -9.90      0.5      0.5    100      4.2      4.2   100      4.7     4.7     100     13.2    0.40      0      0      0      0      0    81.6    81.6      0     0.98      4.2      4.2      4.2   100    19.3     2.914    84.9    2.474   24.738     100        1.90    0.000    0.000     339.4     99.4    0.40    99.4     200.0     120.0      98.0      78.3      51.2      40.0    0.000     0.000     0.000     0.000     0.000    0.40     0.00    0.00      0   -9.90   -9.00       12.1       27.3       30.0       30.0       30.0       30.0       30.0       30.0       30.0       30.0       30.0       30.0        0.0        0.0        0.0        0.0        0.0        0.0        0.0        0.0        0.0        0.0        0.0        0.0      0.5       4.3      12.7      17.2      21.8    423.08
     4     7  2024    36     2     337.6     2.2      0.0    0.0    2.2    0.0      0.0      0.0   -9.90      0.4      0.4    100      3.6      3.6   100      4.0     4.0     100     12.5    0.40      0      0      0      0      0    82.0    82.0      0     0.98      3.6      3.6      3.6   100    19.3     3.104    84.9    2.635   26.347     100        1.97    0.000    0.000     337.6     97.6    0.40    97.6     200.0     120.0      96.2      76.8      50.4      40.0    0.000     0.000     0.000     0.000     0.000    0.40     0.00    0.00      0   -9.90   -9.00       10.4       27.3       30.0       30.0       30.0       30.0       30.0       30.0       30.0       30.0       30.0       30.0        0.0        0.0        0.0        0.0        0.0        0.0        0.0        0.0        0.0        0.0        0.0        0.0      2.2       3.6      12.5      16.5      20.5    423.08
     5     7  2024    37     2     337.3     3.2      0.0    0.0    3.2    0.0      0.0      0.0   -9.90      0.3      0.3    100      3.2      3.2   100      3.5     3.5     100     12.5    0.40      0      0      0      0      0    82.4    82.4      0     0.98      3.2      3.2      3.2   100    19.3     3.293    84.9    2.796   27.961     100        2.03    0.000    0.000     337.3     97.3    0.40    97.3     200.0     120.0      94.9      75.8      49.9      40.0    0.000     0.000     0.000     0.000     0.000    0.40     0.00    0.00      0   -9.90   -9.00       10.1       27.3       30.0       30.0       30.0       30.0       30.0       30.0       30.0       30.0       30.0       30.0        0.0        0.0        0.0        0.0        0.0        0.0        0.0        0.0        0.0        0.0        0.0        0.0      3.2       3.2      12.4      16.5      20.6    423.08
     6     7  2024    38     2     333.3     0.2      0.0    0.0    0.2    0.0      0.0      0.0   -9.90      0.4      0.2     59      4.0      4.0   100      4.4     4.3      96     12.8    0.40      0      0      0      0      0    82.7    82.7      0     0.98      4.0      4.0      4.0   100    19.3     3.484    84.9    2.958   29.578     100        2.09    0.000    0.000     333.3     93.3    0.40    93.3     200.0     120.0      97.4      77.8      50.9      40.0    0.000     0.000     0.000     0.000     0.000    0.40     0.00    0.00      0   -9.90   -9.00       10.0       23.7       29.6       30.0       30.0       30.0       30.0       30.0       30.0       30.0       30.0       30.0        0.0        0.0        0.0        0.0        0.0        0.0        0.0        0.0        0.0        0.0        0.0        0.0      0.2       4.1      12.5      16.8      21.1    423.08
     7     7  2024    39     2     330.2     0.8      0.0    0.0    0.8    0.0      0.0      0.0   -9.90      0.3      0.3    100      3.4      3.4   100      3.8     3.8     100     13.1    0.40      1      0      0      0      0    82.9    82.9      0     0.99      3.4      3.4      3.4   100    19.3     3.674    84.9    3.120   31.197     100        2.14    0.000    0.000     330.2     90.2    0.40    90.2     200.0     120.0      95.7      76.4      50.2      40.0    0.000     0.000     0.000     0.000     0.000    0.40     0.00    0.00      0   -9.90   -9.00        9.8       20.8       29.6       30.0       30.0       30.0       30.0       30.0       30.0       30.0       30.0       30.0        0.0        0.0        0.0        0.0        0.0        0.0        0.0        0.0        0.0        0.0        0.0        0.0      0.8       3.5      12.9      17.1      21.4    423.08
     8     7  2024    40     2     328.4     2.7      0.0    0.0    2.7    0.0      0.0      0.0   -9.90      0.4      0.4    100      4.1      4.1   100      4.5     4.5     100     14.1    0.40      4      0      0      0      0    83.1    83.1      0     0.99      4.1      4.1      4.1   100    19.3     3.865    84.9    3.282   32.819     100        2.19    0.000    0.000     328.4     88.4    0.40    88.4     200.0     120.0      97.6      78.0      51.0      40.0    0.000     0.000     0.000     0.000     0.000    0.40     0.00    0.00      0   -9.90   -9.00        9.7       19.2       29.6       30.0       30.0       30.0       30.0       30.0       30.0       30.0       30.0       30.0        0.0        0.0        0.0        0.0        0.0        0.0        0.0        0.0        0.0        0.0        0.0        0.0      2.7       4.2      13.5      18.1      22.7    423.08
     9     7  2024    41     2     328.1     0.2      0.0    0.0    0.2    0.0      0.0      0.0   -9.90      4.1      0.5     13      0.0      0.0   100      4.1     0.5      13     13.8    0.40      4     -9      0      0     -9     0.0     0.0      0    -9.00      0.0      0.0      0.0   100    19.3     3.865    84.9    3.282   32.819     100        2.19    0.000    0.000     328.1     88.1    0.40    88.1     200.0     120.0      97.6      77.0      51.0      40.0    0.000     0.000     0.000     0.000     0.000    0.40     0.00    0.00      0   -9.90   -9.00        9.4       19.2       29.6       30.0       30.0       30.0       30.0       30.0       30.0       30.0       30.0       30.0        0.0        0.0        0.0        0.0        0.0        0.0        0.0        0.0        0.0        0.0        0.0        0.0      0.2       3.7      13.2      17.8      22.4    423.08
    10     7  2024    -9     0     328.4     4.1      0.0    0.0    4.1    0.0      0.0      0.0   -9.90      3.9      3.9    100      0.0      0.0   100      3.9     3.9     100     14.0    0.40      4     -9      0      0     -9     0.0     0.0      0    -9.00      0.0      0.0      0.0   100    19.3     3.865    84.9    3.282   32.819     100        2.19    0.000    0.000     328.4     88.4    0.40    88.4     200.0     120.0      97.6      76.6      51.0      40.0    0.000     0.000     0.000     0.000     0.000    0.40     0.00    0.00      0   -9.90   -9.00        9.6       19.2       29.6       30.0       30.0       30.0       30.0       30.0       30.0       30.0       30.0       30.0        0.0        0.0        0.0        0.0        0.0        0.0        0.0        0.0        0.0        0.0        0.0        0.0      4.1       3.6      13.6      18.0      22.5    423.08
    11     7  2024    -9     0     328.9     4.7      0.0    0.0    4.7    0.0      0.0      0.0   -9.90      4.1      4.1    100      0.0      0.0   100      4.1     4.1     100     14.0    0.40      4     -9      0      0     -9     0.0     0.0      0    -9.00      0.0      0.0      0.0   100    19.3     3.865    84.9    3.282   32.819     100        2.19    0.000    0.000     328.9     88.9    0.40    88.9     200.0     120.0      97.6      77.1      51.0      40.0    0.000     0.000     0.000     0.000     0.000    0.40     0.00    0.00      0   -9.90   -9.00       10.1       19.2       29.6       30.0       30.0       30.0       30.0       30.0       30.0       30.0       30.0       30.0        0.0        0.0        0.0        0.0        0.0        0.0        0.0        0.0        0.0        0.0        0.0        0.0      4.7       3.8      13.6      18.0      22.4    423.08
    12     7  2024    -9     0     328.7     1.6      0.0    0.0    1.6    0.0      0.0      0.0   -9.90      4.3      1.8     42      0.0      0.0   100      4.3     1.8      42     14.7    0.40      4     -9      0      0     -9     0.0     0.0      0    -9.00      0.0      0.0      0.0   100    19.3     3.865    84.9    3.282   32.819     100        2.19    0.000    0.000     328.7     88.7    0.40    88.7     200.0     120.0      97.6      77.4      51.0      40.0    0.000     0.000     0.000     0.000     0.000    0.40     0.00    0.00      0   -9.90   -9.00        9.9       19.2       29.6       30.0       30.0       30.0       30.0       30.0       30.0       30.0       30.0       30.0        0.0        0.0        0.0        0.0        0.0        0.0        0.0        0.0        0.0        0.0        0.0        0.0      1.6       3.9      14.3      18.7      23.1    423.08
    13     7  2024    -9     0     328.5     1.6      0.0    0.0    1.6    0.0      0.0      0.0   -9.90      4.3      1.8     42      0.0      0.0   100      4.3     1.8      42     14.4    0.40      4     -9      0      0     -9     0.0     0.0      0    -9.00      0.0      0.0      0.0   100    19.3     3.865    84.9    3.282   32.819     100        2.19    0.000    0.000     328.5     88.5    0.40    88.5     200.0     120.0      97.6      77.4      51.0      40.0    0.000     0.000     0.000     0.000     0.000    0.40     0.00    0.00      0   -9.90   -9.00        9.7       19.2       29.6       30.0       30.0       30.0       30.0       30.0       30.0       30.0       30.0       30.0        0.0        0.0        0.0        0.0        0.0        0.0        0.0        0.0        0.0        0.0        0.0        0.0      1.6       3.9      13.9      18.4      23.0    423.08
    14     7  2024    -9     0     328.2     0.5      0.0    0.0    0.5    0.0      0.0      0.0   -9.90      3.9      0.8     20      0.0      0.0   100      3.9     0.8      20     13.9    0.40      4     -9      0      0     -9     0.0     0.0      0    -9.00      0.0      0.0      0.0   100    19.3     3.865    84.9    3.282   32.819     100        2.19    0.000    0.000     328.2     88.2    0.40    88.2     200.0     120.0      97.6      76.6      51.0      40.0    0.000     0.000     0.000     0.000     0.000    0.40     0.00    0.00      0   -9.90   -9.00        9.4       19.2       29.6       30.0       30.0       30.0       30.0       30.0       30.0       30.0       30.0       30.0        0.0        0.0        0.0        0.0        0.0        0.0        0.0        0.0        0.0        0.0        0.0        0.0      0.5       3.6      14.0      17.9      21.9    423.08
    15     7  2024    -9     0     328.0     0.3      0.0    0.0    0.3    0.0      0.0      0.0   -9.90      3.2      0.5     16      0.0      0.0   100      3.2     0.5      16     13.8    0.40      4     -9      0      0     -9     0.0     0.0      0    -9.00      0.0      0.0      0.0   100    19.3     3.865    84.9    3.282   32.819     100        2.19    0.000    0.000     328.0     88.0    0.40    88.0     200.0     120.0      97.6      75.0      51.0      40.0    0.000     0.000     0.000     0.000     0.000    0.40     0.00    0.00      0   -9.90   -9.00        9.2       19.2       29.6       30.0       30.0       30.0       30.0       30.0       30.0       30.0       30.0       30.0        0.0        0.0        0.0        0.0        0.0        0.0        0.0        0.0        0.0        0.0        0.0        0.0      0.3       2.9      14.2      17.8      21.3    423.08
    16     7  2024    -9     0     327.9     2.9      0.0    0.0    2.9    0.0      0.0      0.0   -9.90      3.8      3.0     80      0.0      0.0   100      3.8     3.0      80     14.4    0.40      4     -9      0      0     -9     0.0     0.0      0    -9.00      0.0      0.0      0.0   100    19.3     3.865    84.9    3.282   32.819     100        2.19    0.000    0.000     327.9     87.9    0.40    87.9     200.0     120.0      97.6      76.2      51.0      40.0    0.000     0.000     0.000     0.000     0.000    0.40     0.00    0.00      0   -9.90   -9.00        9.2       19.2       29.6       30.0       30.0       30.0       30.0       30.0       30.0       30.0       30.0       30.0        0.0        0.0        0.0        0.0        0.0        0.0        0.0        0.0        0.0        0.0        0.0        0.0      2.9       3.4      14.3      18.4      22.5    423.08
    17     7  2024    -9     0     328.6     4.8      0.0    0.0    4.8    0.0      0.0      0.0   -9.90      4.1      4.1    100      0.0      0.0   100      4.1     4.1     100     14.4    0.40      4     -9      0      0     -9     0.0     0.0      0    -9.00      0.0      0.0      0.0   100    19.3     3.865    84.9    3.282   32.819     100        2.19    0.000    0.000     328.6     88.6    0.40    88.6     200.0     120.0      97.6      76.9      51.0      40.0    0.000     0.000     0.000     0.000     0.000    0.40     0.00    0.00      0   -9.90   -9.00        9.9       19.2       29.6       30.0       30.0       30.0       30.0       30.0       30.0       30.0       30.0       30.0        0.0        0.0        0.0        0.0        0.0        0.0        0.0        0.0        0.0        0.0        0.0        0.0      4.8       3.7      14.1      18.4      22.8    423.08
    18     7  2024    -9     0     328.3     0.3      0.0    0.0    0.3    0.0      0.0      0.0   -9.90      4.1      0.6     14      0.0      0.0   100      4.1     0.6      14     14.6    0.40      4     -9      0      0     -9     0.0     0.0      0    -9.00      0.0      0.0      0.0   100    19.3     3.865    84.9    3.282   32.819     100        2.19    0.000    0.000     328.3     88.3    0.40    88.3     200.0     120.0      97.6      77.0      51.0      40.0    0.000     0.000     0.000     0.000     0.000    0.40     0.00    0.00      0   -9.90   -9.00        9.5       19.2       29.6       30.0       30.0       30.0       30.0       30.0       30.0       30.0       30.0       30.0        0.0        0.0        0.0        0.0        0.0        0.0        0.0        0.0        0.0        0.0        0.0        0.0      0.3       3.7      14.4      18.6      22.8    423.08
    19     7  2024    -9     0     328.0     0.0      0.0    0.0    0.0    0.0      0.0      0.0   -9.90      4.7      0.3      7      0.0      0.0   100      4.7     0.3       7     14.7    0.40      4     -9      0      0     -9     0.0     0.0      0    -9.00      0.0      0.0      0.0   100    19.3     3.865    84.9    3.282   32.819     100        2.19    0.000    0.000     328.0     88.0    0.40    88.0     200.0     120.0      97.6      78.2      51.0      40.0    0.000     0.000     0.000     0.000     0.000    0.40     0.00    0.00      0   -9.90   -9.00        9.2       19.2       29.6       30.0       30.0       30.0       30.0       30.0       30.0       30.0       30.0       30.0        0.0        0.0        0.0        0.0        0.0        0.0        0.0        0.0        0.0        0.0        0.0        0.0      0.0       4.2      14.2      18.7      23.2    423.08
    20     7  2024    -9     0     327.8     1.0      0.0    0.0    1.0    0.0      0.0      0.0   -9.90      4.2      1.2     29      0.0      0.0   100      4.2     1.2      29     14.8    0.40      4     -9      0      0     -9     0.0     0.0      0    -9.00      0.0      0.0      0.0   100    19.3     3.865    84.9    3.282   32.819     100        2.19    0.000    0.000     327.8     87.8    0.40    87.8     200.0     120.0      97.6      77.3      51.0      40.0    0.000     0.000     0.000     0.000     0.000    0.40     0.00    0.00      0   -9.90   -9.00        9.0       19.2       29.6       30.0       30.0       30.0       30.0       30.0       30.0       30.0       30.0       30.0        0.0        0.0        0.0        0.0        0.0        0.0        0.0        0.0        0.0        0.0        0.0        0.0      1.0       3.9      14.4      18.8      23.2    423.08
    21     7  2024    -9     0     327.6     2.1      0.0    0.0    2.1    0.0      0.0      0.0   -9.90      4.1      2.3     55      0.0      0.0   100      4.1     2.3      55     14.6    0.40      4     -9      0      0     -9     0.0     0.0      0    -9.00      0.0      0.0      0.0   100    19.3     3.865    84.9    3.282   32.819     100        2.19    0.000    0.000     327.6     87.6    0.40    87.6     200.0     120.0      97.6      77.1      51.0      40.0    0.000     0.000     0.000     0.000     0.000    0.40     0.00    0.00      0   -9.90   -9.00        8.8       19.2       29.6       30.0       30.0       30.0       30.0       30.0       30.0       30.0       30.0       30.0        0.0        0.0        0.0        0.0        0.0        0.0        0.0        0.0        0.0        0.0        0.0        0.0      2.1       3.8      14.2      18.6      23.0    423.08
    22     7  2024    -9     0     327.5     2.7      0.0    0.0    2.7    0.0      0.0      0.0   -9.90      4.1      2.8     69      0.0      0.0   100      4.1     2.8      69     14.5    0.40      4     -9      0      0     -9     0.0     0.0      0    -9.00      0.0      0.0      0.0   100    19.3     3.865    84.9    3.282   32.819     100        2.19    0.000    0.000     327.5     87.5    0.40    87.5     200.0     120.0      97.6      77.0      51.0      40.0    0.000     0.000     0.000     0.000     0.000    0.40     0.00    0.00      0   -9.90   -9.00        8.7       19.2       29.6       30.0       30.0       30.0       30.0       30.0       30.0       30.0       30.0       30.0        0.0        0.0        0.0        0.0        0.0        0.0        0.0        0.0        0.0        0.0        0.0        0.0      2.7       3.7      14.2      18.5      22.9    423.08
    23     7  2024    -9     0     327.2     0.3      0.0    0.0    0.3    0.0      0.0      0.0   -9.90      4.4      0.6     14      0.0      0.0   100      4.4     0.6      14     14.8    0.40      4     -9      0      0     -9     0.0     0.0      0    -9.00      0.0      0.0      0.0   100    19.3     3.865    84.9    3.282   32.819     100        2.19    0.000    0.000     327.2     87.2    0.40    87.2     200.0     120.0      97.6      77.6      51.0      40.0    0.000     0.000     0.000     0.000     0.000    0.40     0.00    0.00      0   -9.90   -9.00        8.4       19.2       29.6       30.0       30.0       30.0       30.0       30.0       30.0       30.0       30.0       30.0        0.0        0.0        0.0        0.0        0.0        0.0        0.0        0.0        0.0        0.0        0.0        0.0      0.3       4.0      14.1      18.8      23.5    423.08
    24     7  2024    -9     0     327.0     0.8      0.0    0.0    0.8    0.0      0.0      0.0   -9.90      4.0      1.0     26      0.0      0.0   100      4.0     1.0      26     14.5    0.40      4     -9      0      0     -9     0.0     0.0      0    -9.00      0.0      0.0      0.0   100    19.3     3.865    84.9    3.282   32.819     100        2.19    0.000    0.000     327.0     87.0    0.40    87.0     200.0     120.0      97.6      76.7      51.0      40.0    0.000     0.000     0.000     0.000     0.000    0.40     0.00    0.00      0   -9.90   -9.00        8.2       19.2       29.6       30.0       30.0       30.0       30.0       30.0       30.0       30.0       30.0       30.0        0.0        0.0        0.0        0.0        0.0        0.0        0.0        0.0        0.0        0.0        0.0        0.0      0.8       3.6      14.3      18.5      22.7    423.08
    25     7  2024    -9     0     327.2     4.0      0.0    0.0    4.0    0.0      0.0      0.0   -9.90      3.8      3.8    100      0.0      0.0   100      3.8     3.8     100     14.6    0.40      4     -9      0      0     -9     0.0     0.0      0    -9.00      0.0      0.0      0.0   100    19.3     3.865    84.9    3.282   32.819     100        2.19    0.000    0.000     327.2     87.2    0.40    87.2     200.0     120.0      97.6      76.4      51.0      40.0    0.000     0.000     0.000     0.000     0.000    0.40     0.00    0.00      0   -9.90   -9.00        8.4       19.2       29.6       30.0       30.0       30.0       30.0       30.0       30.0       30.0       30.0       30.0        0.0        0.0        0.0        0.0        0.0        0.0        0.0        0.0        0.0        0.0        0.0        0.0      4.0       3.5      14.5      18.6      22.7    423.08
    26     7  2024    -9     0     326.9     0.2      0.0    0.0    0.2    0.0      0.0      0.0   -9.90      4.2      0.5     12      0.0      0.0   100      4.2     0.5      12     14.6    0.40      4     -9      0      0     -9     0.0     0.0      0    -9.00      0.0      0.0      0.0   100    19.3     3.865    84.9    3.282   32.819     100        2.19    0.000    0.000     326.9     86.9    0.40    86.9     200.0     120.0      97.6      77.1      51.0      40.0    0.000     0.000     0.000     0.000     0.000    0.40     0.00    0.00      0   -9.90   -9.00        8.2       19.2       29.6       30.0       30.0       30.0       30.0       30.0       30.0       30.0       30.0       30.0        0.0        0.0        0.0        0.0        0.0        0.0        0.0        0.0        0.0        0.0        0.0        0.0      0.2       3.8      14.3      18.6      22.9    423.08
    27     7  2024    -9     0     326.8     1.4      0.0    0.0    1.4    0.0      0.0      0.0   -9.90      3.9      1.6     41      0.0      0.0   100      3.9     1.6      41     14.8    0.40      4     -9      0      0     -9     0.0     0.0      0    -9.00      0.0      0.0      0.0   100    19.3     3.865    84.9    3.282   32.819     100        2.19    0.000    0.000     326.8     86.8    0.40    86.8     200.0     120.0      97.6      76.5      51.0      40.0    0.000     0.000     0.000     0.000     0.000    0.40     0.00    0.00      0   -9.90   -9.00        8.0       19.2       29.6       30.0       30.0       30.0       30.0       30.0       30.0       30.0       30.0       30.0        0.0        0.0        0.0        0.0        0.0        0.0        0.0        0.0        0.0        0.0        0.0        0.0      1.4       3.5      14.6      18.8      23.0    423.08
    28     7  2024    -9     0     326.8     4.3      0.0    0.0    4.3    0.0      0.0      0.0   -9.90      4.4      4.3     99      0.0      0.0   100      4.4     4.3      99     14.9    0.40      4     -9      0      0     -9     0.0     0.0      0    -9.00      0.0      0.0      0.0   100    19.3     3.865    84.9    3.282   32.819     100        2.19    0.000    0.000     326.8     86.8    0.40    86.8     200.0     120.0      97.6      77.6      51.0      40.0    0.000     0.000     0.000     0.000     0.000    0.40     0.00    0.00      0   -9.90   -9.00        8.0       19.2       29.6       30.0       30.0       30.0       30.0       30.0       30.0       30.0       30.0       30.0        0.0        0.0        0.0        0.0        0.0        0.0        0.0        0.0        0.0        0.0        0.0        0.0      4.3       4.0      14.4      18.9      23.4    423.08
    29     7  2024    -9     0     326.7     2.9      0.0    0.0    2.9    0.0      0.0      0.0   -9.90      4.4      3.0     69      0.0      0.0   100      4.4     3.0      69     14.4    0.40      4     -9      0      0     -9     0.0     0.0      0    -9.00      0.0      0.0      0.0   100    19.3     3.865    84.9    3.282   32.819     100        2.19    0.000    0.000     326.7     86.7    0.40    86.7     200.0     120.0      97.6      77.5      51.0      40.0    0.000     0.000     0.000     0.000     0.000    0.40     0.00    0.00      0   -9.90   -9.00        7.9       19.2       29.6       30.0       30.0       30.0       30.0       30.0       30.0       30.0       30.0       30.0        0.0        0.0        0.0        0.0        0.0        0.0        0.0        0.0        0.0        0.0        0.0        0.0      2.9       4.0      13.9      18.4      22.9    423.08
    30     7  2024    -9     0     326.4     0.2      0.0    0.0    0.2    0.0      0.0      0.0   -9.90      4.5      0.4     10      0.0      0.0   100      4.5     0.4      10     14.5    0.40      4     -9      0      0     -9     0.0     0.0      0    -9.00      0.0      0.0      0.0   100    19.3     3.865    84.9    3.282   32.819     100        2.19    0.000    0.000     326.4     86.4    0.40    86.4     200.0     120.0      97.6      77.8      51.0      40.0    0.000     0.000     0.000     0.000     0.000    0.40     0.00    0.00      0   -9.90   -9.00        7.6       19.2       29.6       30.0       30.0       30.0       30.0       30.0       30.0       30.0       30.0       30.0        0.0        0.0        0.0        0.0        0.0        0.0        0.0        0.0        0.0        0.0        0.0        0.0      0.2       4.1      14.0      18.5      23.0    423.08
    31     7  2024    -9     0     326.2     0.2      0.0    0.0    0.2    0.0      0.0      0.0   -9.90      4.3      0.5     11      0.0      0.0   100      4.3     0.5      11     14.6    0.40      4     -9      0      0     -9     0.0     0.0      0    -9.00      0.0      0.0      0.0   100    19.3     3.865    84.9    3.282   32.819     100        2.19    0.000    0.000     326.2     86.2    0.40    86.2     200.0     120.0      97.6      77.4      51.0      40.0    0.000     0.000     0.000     0.000     0.000    0.40     0.00    0.00      0   -9.90   -9.00        7.4       19.2       29.6       30.0       30.0       30.0       30.0       30.0       30.0       30.0       30.0       30.0        0.0        0.0        0.0        0.0        0.0        0.0        0.0        0.0        0.0        0.0        0.0        0.0      0.2       3.9      13.7      18.6      23.5    423.08
     1     8  2024    -9     0     327.1     4.7      0.0    0.0    4.7    0.0      0.0      0.0   -9.90      3.8      3.8    100      0.0      0.0   100      3.8     3.8     100     14.2    0.40      4     -9      0      0     -9     0.0     0.0      0    -9.00      0.0      0.0      0.0   100    19.3     3.865    84.9    3.282   32.819     100        2.19    0.000    0.000     327.1     87.1    0.40    87.1     200.0     120.0      97.6      76.3      51.0      40.0    0.000     0.000     0.000     0.000     0.000    0.40     0.00    0.00      0   -9.90   -9.00        8.3       19.2       29.6       30.0       30.0       30.0       30.0       30.0       30.0       30.0       30.0       30.0        0.0        0.0        0.0        0.0        0.0        0.0        0.0        0.0        0.0        0.0        0.0        0.0      4.7       3.5      14.2      18.2      22.2    423.08
     2     8  2024    -9     0     326.0     0.0      0.0    0.0    0.0    0.0      0.0      0.0   -9.90      4.3      1.1     26      0.0      0.0   100      4.3     1.1      26     14.7    0.40      4     -9      0      0     -9     0.0     0.0      0    -9.00      0.0      0.0      0.0   100    19.3     3.865    84.9    3.282   32.819     100        2.19    0.000    0.000     326.0     86.0    0.40    86.0     200.0     120.0      97.6      77.5      51.0      40.0    0.000     0.000     0.000     0.000     0.000    0.40     0.00    0.00      0   -9.90   -9.00        7.2       19.2       29.6       30.0       30.0       30.0       30.0       30.0       30.0       30.0       30.0       30.0        0.0        0.0        0.0        0.0        0.0        0.0        0.0        0.0        0.0        0.0        0.0        0.0      0.0       4.0      13.8      18.7      23.6    423.08
     3     8  2024    -9     0     325.8     1.3      0.0    0.0    1.3    0.0      0.0      0.0   -9.90      4.1      1.5     36      0.0      0.0   100      4.1     1.5      36     14.6    0.40      4     -9      0      0     -9     0.0     0.0      0    -9.00      0.0      0.0      0.0   100    19.3     3.865    84.9    3.282   32.819     100        2.19    0.000    0.000     325.8     85.8    0.40    85.8     200.0     120.0      97.6      76.9      51.0      40.0    0.000     0.000     0.000     0.000     0.000    0.40     0.00    0.00      0   -9.90   -9.00        7.0       19.2       29.6       30.0       30.0       30.0       30.0       30.0       30.0       30.0       30.0       30.0        0.0        0.0        0.0        0.0        0.0        0.0        0.0        0.0        0.0        0.0        0.0        0.0      1.3       3.7      14.3      18.6      22.8    423.08
     4     8  2024    -9     0     331.5     9.4      0.0    0.0    9.4    0.0      0.0      0.0   -9.90      3.6      3.6    100      0.0      0.0   100      3.6     3.6     100     14.8    0.40      4     -9      0      0     -9     0.0     0.0      0    -9.00      0.0      0.0      0.0   100    19.3     3.865    84.9    3.282   32.819     100        2.19    0.000    0.000     331.5     91.5    0.40    91.5     200.0     120.0      97.6      76.0      51.0      40.0    0.000     0.000     0.000     0.000     0.000    0.40     0.00    0.00      0   -9.90   -9.00       12.8       19.2       29.6       30.0       30.0       30.0       30.0       30.0       30.0       30.0       30.0       30.0        0.0        0.0        0.0        0.0        0.0        0.0        0.0        0.0        0.0        0.0        0.0        0.0      9.4       3.3      14.6      18.8      23.1    423.08
     5     8  2024    -9     0     327.1     0.0      0.0    0.0    0.0    0.0      0.0      0.0   -9.90      4.4      4.4    100      0.0      0.0   100      4.4     4.4     100     14.8    0.40      4     -9      0      0     -9     0.0     0.0      0    -9.00      0.0      0.0      0.0   100    19.3     3.865    84.9    3.282   32.819     100        2.19    0.000    0.000     327.1     87.1    0.40    87.1     200.0     120.0      97.6      77.6      51.0      40.0    0.000     0.000     0.000     0.000     0.000    0.40     0.00    0.00      0   -9.90   -9.00        8.3       19.2       29.6       30.0       30.0       30.0       30.0       30.0       30.0       30.0       30.0       30.0        0.0        0.0        0.0        0.0        0.0        0.0        0.0        0.0        0.0        0.0        0.0        0.0      0.0       4.0      14.6      18.8      22.9    423.08
     6     8  2024    -9     0     327.0     2.0      0.0    0.0    2.0    0.0      0.0      0.0   -9.90      3.6      2.1     58      0.0      0.0   100      3.6     2.1      58     14.7    0.40      4     -9      0      0     -9     0.0     0.0      0    -9.00      0.0      0.0      0.0   100    19.3     3.865    84.9    3.282   32.819     100        2.19    0.000    0.000     327.0     87.0    0.40    87.0     200.0     120.0      97.6      75.8      51.0      40.0    0.000     0.000     0.000     0.000     0.000    0.40     0.00    0.00      0   -9.90   -9.00        8.2       19.2       29.6       30.0       30.0       30.0       30.0       30.0       30.0       30.0       30.0       30.0        0.0        0.0        0.0        0.0        0.0        0.0        0.0        0.0        0.0        0.0        0.0        0.0      2.0       3.2      14.6      18.7      22.7    423.08
     7     8  2024    -9     0     327.0     3.2      0.0    0.0    3.2    0.0      0.0      0.0   -9.90      3.6      3.2     88      0.0      0.0   100      3.6     3.2      88     14.5    0.40      4     -9      0      0     -9     0.0     0.0      0    -9.00      0.0      0.0      0.0   100    19.3     3.865    84.9    3.282   32.819     100        2.19    0.000    0.000     327.0     87.0    0.40    87.0     200.0     120.0      97.6      75.9      51.0      40.0    0.000     0.000     0.000     0.000     0.000    0.40     0.00    0.00      0   -9.90   -9.00        8.2       19.2       29.6       30.0       30.0       30.0       30.0       30.0       30.0       30.0       30.0       30.0        0.0        0.0        0.0        0.0        0.0        0.0        0.0        0.0        0.0        0.0        0.0        0.0      3.2       3.3      14.4      18.5      22.5    423.08
     8     8  2024    -9     0     326.8     0.4      0.0    0.0    0.4    0.0      0.0      0.0   -9.90      3.8      0.6     15      0.0      0.0   100      3.8     0.6      15     14.4    0.40      4     -9      0      0     -9     0.0     0.0      0    -9.00      0.0      0.0      0.0   100    19.3     3.865    84.9    3.282   32.819     100        2.19    0.000    0.000     326.8     86.8    0.40    86.8     200.0     120.0      97.6      76.4      51.0      40.0    0.000     0.000     0.000     0.000     0.000    0.40     0.00    0.00      0   -9.90   -9.00        8.0       19.2       29.6       30.0       30.0       30.0       30.0       30.0       30.0       30.0       30.0       30.0        0.0        0.0        0.0        0.0        0.0        0.0        0.0        0.0        0.0        0.0        0.0        0.0      0.4       3.5      14.2      18.4      22.6    423.08
     9     8  2024    -9     0     326.6     1.0      0.0    0.0    1.0    0.0      0.0      0.0   -9.90      3.9      1.2     29      0.0      0.0   100      3.9     1.2      29     14.8    0.40      4     -9      0      0     -9     0.0     0.0      0    -9.00      0.0      0.0      0.0   100    19.3     3.865    84.9    3.282   32.819     100        2.19    0.000    0.000     326.6     86.6    0.40    86.6     200.0     120.0      97.6      76.6      51.0      40.0    0.000     0.000     0.000     0.000     0.000    0.40     0.00    0.00      0   -9.90   -9.00        7.8       19.2       29.6       30.0       30.0       30.0       30.0       30.0       30.0       30.0       30.0       30.0        0.0        0.0        0.0        0.0        0.0        0.0        0.0        0.0        0.0        0.0        0.0        0.0      1.0       3.6      14.2      18.8      23.4    423.08
    10     8  2024    -9     0     326.5     2.2      0.0    0.0    2.2    0.0      0.0      0.0   -9.90      2.9      2.2     78      0.0      0.0   100      2.9     2.2      78     14.5    0.40      4     -9      0      0     -9     0.0     0.0      0    -9.00      0.0      0.0      0.0   100    19.3     3.865    84.9    3.282   32.819     100        2.19    0.000    0.000     326.5     86.5    0.40    86.5     200.0     120.0      97.6      74.3      51.0      40.0    0.000     0.000     0.000     0.000     0.000    0.40     0.00    0.00      0   -9.90   -9.00        7.8       19.2       29.6       30.0       30.0       30.0       30.0       30.0       30.0       30.0       30.0       30.0        0.0        0.0        0.0        0.0        0.0        0.0        0.0        0.0        0.0        0.0        0.0        0.0      2.2       2.6      15.3      18.5      21.7    423.08
    11     8  2024    -9     0     326.9     3.8      0.0    0.0    3.8    0.0      0.0      0.0   -9.90      3.4      3.4    100      0.0      0.0   100      3.4     3.4     100     14.8    0.40      4     -9      0      0     -9     0.0     0.0      0    -9.00      0.0      0.0      0.0   100    19.3     3.865    84.9    3.282   32.819     100        2.19    0.000    0.000     326.9     86.9    0.40    86.9     200.0     120.0      97.6      75.5      51.0      40.0    0.000     0.000     0.000     0.000     0.000    0.40     0.00    0.00      0   -9.90   -9.00        8.1       19.2       29.6       30.0       30.0       30.0       30.0       30.0       30.0       30.0       30.0       30.0        0.0        0.0        0.0        0.0        0.0        0.0        0.0        0.0        0.0        0.0        0.0        0.0      3.8       3.1      15.4      18.8      22.2    423.08
    12     8  2024    -9     0     326.8     2.5      0.0    0.0    2.5    0.0      0.0      0.0   -9.90      3.9      2.6     68      0.0      0.0   100      3.9     2.6      68     15.4    0.40      4     -9      0      0     -9     0.0     0.0      0    -9.00      0.0      0.0      0.0   100    19.3     3.865    84.9    3.282   32.819     100        2.19    0.000    0.000     326.8     86.8    0.40    86.8     200.0     120.0      97.6      76.5      51.0      40.0    0.000     0.000     0.000     0.000     0.000    0.40     0.00    0.00      0   -9.90   -9.00        8.0       19.2       29.6       30.0       30.0       30.0       30.0       30.0       30.0       30.0       30.0       30.0        0.0        0.0        0.0        0.0        0.0        0.0        0.0        0.0        0.0        0.0        0.0        0.0      2.5       3.5      14.6      19.4      24.2    423.08
    13     8  2024    -9     0     326.6     0.0      0.0    0.0    0.0    0.0      0.0      0.0   -9.90      4.1      0.3      6      0.0      0.0   100      4.1     0.3       6     14.8    0.40      4     -9      0      0     -9     0.0     0.0      0    -9.00      0.0      0.0      0.0   100    19.3     3.865    84.9    3.282   32.819     100        2.19    0.000    0.000     326.6     86.6    0.40    86.6     200.0     120.0      97.6      76.9      51.0      40.0    0.000     0.000     0.000     0.000     0.000    0.40     0.00    0.00      0   -9.90   -9.00        7.8       19.2       29.6       30.0       30.0       30.0       30.0       30.0       30.0       30.0       30.0       30.0        0.0        0.0        0.0        0.0        0.0        0.0        0.0        0.0        0.0        0.0        0.0        0.0      0.0       3.7      14.3      18.8      23.3    423.08
    14     8  2024    -9     0     326.4     1.3      0.0    0.0    1.3    0.0      0.0      0.0   -9.90      3.7      1.4     39      0.0      0.0   100      3.7     1.4      39     14.5    0.40      4     -9      0      0     -9     0.0     0.0      0    -9.00      0.0      0.0      0.0   100    19.3     3.865    84.9    3.282   32.819     100        2.19    0.000    0.000     326.4     86.4    0.40    86.4     200.0     120.0      97.6      76.0      51.0      40.0    0.000     0.000     0.000     0.000     0.000    0.40     0.00    0.00      0   -9.90   -9.00        7.6       19.2       29.6       30.0       30.0       30.0       30.0       30.0       30.0       30.0       30.0       30.0        0.0        0.0        0.0        0.0        0.0        0.0        0.0        0.0        0.0        0.0        0.0        0.0      1.3       3.3      14.1      18.5      23.0    423.08
    15     8  2024    -9     0     326.2     1.0      0.0    0.0    1.0    0.0      0.0      0.0   -9.90      3.9      1.1     29      0.0      0.0   100      3.9     1.1      29     14.3    0.40      4     -9      0      0     -9     0.0     0.0      0    -9.00      0.0      0.0      0.0   100    19.3     3.865    84.9    3.282   32.819     100        2.19    0.000    0.000     326.2     86.2    0.40    86.2     200.0     120.0      97.6      76.6      51.0      40.0    0.000     0.000     0.000     0.000     0.000    0.40     0.00    0.00      0   -9.90   -9.00        7.5       19.2       29.6       30.0       30.0       30.0       30.0       30.0       30.0       30.0       30.0       30.0        0.0        0.0        0.0        0.0        0.0        0.0        0.0        0.0        0.0        0.0        0.0        0.0      1.0       3.6      14.0      18.3      22.6    423.08
    16     8  2024    -9     0     330.9     7.9      0.0    0.0    7.9    0.0      0.0      0.0   -9.90      3.2      3.2    100      0.0      0.0   100      3.2     3.2     100     14.6    0.40      4     -9      0      0     -9     0.0     0.0      0    -9.00      0.0      0.0      0.0   100    19.3     3.865    84.9    3.282   32.819     100        2.19    0.000    0.000     330.9     90.9    0.40    90.9     200.0     120.0      97.6      75.1      51.0      40.0    0.000     0.000     0.000     0.000     0.000    0.40     0.00    0.00      0   -9.90   -9.00       12.1       19.2       29.6       30.0       30.0       30.0       30.0       30.0       30.0       30.0       30.0       30.0        0.0        0.0        0.0        0.0        0.0        0.0        0.0        0.0        0.0        0.0        0.0        0.0      7.9       2.9      14.7      18.6      22.4    423.08
    17     8  2024    -9     0     336.0     8.1      0.0    0.0    8.1    0.0      0.0      0.0   -9.90      3.0      3.0    100      0.0      0.0   100      3.0     3.0     100     14.5    0.40      4     -9      0      0     -9     0.0     0.0      0    -9.00      0.0      0.0      0.0   100    19.3     3.865    84.9    3.282   32.819     100        2.19    0.000    0.000     336.0     96.0    0.40    96.0     200.0     120.0      97.6      74.6      51.0      40.0    0.000     0.000     0.000     0.000     0.000    0.40     0.00    0.00      0   -9.90   -9.00       17.2       19.2       29.6       30.0       30.0       30.0       30.0       30.0       30.0       30.0       30.0       30.0        0.0        0.0        0.0        0.0        0.0        0.0        0.0        0.0        0.0        0.0        0.0        0.0      8.1       2.7      15.4      18.5      21.6    423.08
    18     8  2024    -9     0     335.7     2.7      0.0    0.0    2.7    0.0      0.0      0.0   -9.90      3.9      3.0     78      0.0      0.0   100      3.9     3.0      78     15.0    0.40      4     -9      0      0     -9     0.0     0.0      0    -9.00      0.0      0.0      0.0   100    19.3     3.865    84.9    3.282   32.819     100        2.19    0.000    0.000     335.7     95.7    0.40    95.7     200.0     120.0      97.6      76.5      51.0      40.0    0.000     0.000     0.000     0.000     0.000    0.40     0.00    0.00      0   -9.90   -9.00       16.9       19.2       29.6       30.0       30.0       30.0       30.0       30.0       30.0       30.0       30.0       30.0        0.0        0.0        0.0        0.0        0.0        0.0        0.0        0.0        0.0        0.0        0.0        0.0      2.7       3.5      14.7      19.0      23.2    423.08
    19     8  2024    -9     0     335.1     1.7      0.0    0.0    1.7    0.0      0.0      0.0   -9.90      3.9      2.2     57      0.0      0.0   100      3.9     2.2      57     14.9    0.40      4     -9      0      0     -9     0.0     0.0      0    -9.00      0.0      0.0      0.0   100    19.3     3.865    84.9    3.282   32.819     100        2.19    0.000    0.000     335.1     95.1    0.40    95.1     200.0     120.0      97.6      76.5      51.0      40.0    0.000     0.000     0.000     0.000     0.000    0.40     0.00    0.00      0   -9.90   -9.00       16.4       19.2       29.6       30.0       30.0       30.0       30.0       30.0       30.0       30.0       30.0       30.0        0.0        0.0        0.0        0.0        0.0        0.0        0.0        0.0        0.0        0.0        0.0        0.0      1.7       3.5      14.6      18.9      23.2    423.08
    20     8  2024    -9     0     334.6     0.8      0.0    0.0    0.8    0.0      0.0      0.0   -9.90      3.4      1.4     41      0.0      0.0   100      3.4     1.4      41     15.4    0.40      4     -9      0      0     -9     0.0     0.0      0    -9.00      0.0      0.0      0.0   100    19.3     3.865    84.9    3.282   32.819     100        2.19    0.000    0.000     334.6     94.6    0.40    94.6     200.0     120.0      97.6      75.4      51.0      40.0    0.000     0.000     0.000     0.000     0.000    0.40     0.00    0.00      0   -9.90   -9.00       15.8       19.2       29.6       30.0       30.0       30.0       30.0       30.0       30.0       30.0       30.0       30.0        0.0        0.0        0.0        0.0        0.0        0.0        0.0        0.0        0.0        0.0        0.0        0.0      0.8       3.1      15.2      19.4      23.6    423.08
    21     8  2024    -9     0     334.5     3.3      0.0    0.0    3.3    0.0      0.0      0.0   -9.90      3.8      3.4     91      0.0      0.0   100      3.8     3.4      91     14.4    0.40      4     -9      0      0     -9     0.0     0.0      0    -9.00      0.0      0.0      0.0   100    19.3     3.865    84.9    3.282   32.819     100        2.19    0.000    0.000     334.5     94.5    0.40    94.5     200.0     120.0      97.6      76.3      51.0      40.0    0.000     0.000     0.000     0.000     0.000    0.40     0.00    0.00      0   -9.90   -9.00       15.7       19.2       29.6       30.0       30.0       30.0       30.0       30.0       30.0       30.0       30.0       30.0        0.0        0.0        0.0        0.0        0.0        0.0        0.0        0.0        0.0        0.0        0.0        0.0      3.3       3.4      13.9      18.4      22.8    423.08
    22     8  2024    -9     0     333.9     1.1      0.0    0.0    1.1    0.0      0.0      0.0   -9.90      3.9      1.7     43      0.0      0.0   100      3.9     1.7      43     14.1    0.40      4     -9      0      0     -9     0.0     0.0      0    -9.00      0.0      0.0      0.0   100    19.3     3.865    84.9    3.282   32.819     100        2.19    0.000    0.000     333.9     93.9    0.40    93.9     200.0     120.0      97.6      76.6      51.0      40.0    0.000     0.000     0.000     0.000     0.000    0.40     0.00    0.00      0   -9.90   -9.00       15.1       19.2       29.6       30.0       30.0       30.0       30.0       30.0       30.0       30.0       30.0       30.0        0.0        0.0        0.0        0.0        0.0        0.0        0.0        0.0        0.0        0.0        0.0        0.0      1.1       3.6      13.1      18.1      23.2    423.08
    23     8  2024    -9     0     333.5     1.5      0.0    0.0    1.5    0.0      0.0      0.0   -9.90      3.7      1.9     52      0.0      0.0   100      3.7     1.9      52     14.5    0.40      4     -9      0      0     -9     0.0     0.0      0    -9.00      0.0      0.0      0.0   100    19.3     3.865    84.9    3.282   32.819     100        2.19    0.000    0.000     333.5     93.5    0.40    93.5     200.0     120.0      97.6      76.1      51.0      40.0    0.000     0.000     0.000     0.000     0.000    0.40     0.00    0.00      0   -9.90   -9.00       14.7       19.2       29.6       30.0       30.0       30.0       30.0       30.0       30.0       30.0       30.0       30.0        0.0        0.0        0.0        0.0        0.0        0.0        0.0        0.0        0.0        0.0        0.0        0.0      1.5       3.3      14.0      18.5      23.0    423.08
    24     8  2024    -9     0     333.0     0.3      0.0    0.0    0.3    0.0      0.0      0.0   -9.90      3.2      0.8     26      0.0      0.0   100      3.2     0.8      26     13.6    0.40      4     -9      0      0     -9     0.0     0.0      0    -9.00      0.0      0.0      0.0   100    19.3     3.865    84.9    3.282   32.819     100        2.19    0.000    0.000     333.0     93.0    0.40    93.0     200.0     120.0      97.6      75.0      51.0      40.0    0.000     0.000     0.000     0.000     0.000    0.40     0.00    0.00      0   -9.90   -9.00       14.3       19.2       29.6       30.0       30.0       30.0       30.0       30.0       30.0       30.0       30.0       30.0        0.0        0.0        0.0        0.0        0.0        0.0        0.0        0.0        0.0        0.0        0.0        0.0      0.3       2.9      13.9      17.6      21.4    423.08
[...]
    26     2  2025    -9     0     363.0     1.9      0.0    0.0    1.9    0.0      1.8      0.0   -9.90      1.2      1.2    100      0.0      0.0   100      1.2     1.2     100      0.0    0.40      4     -9      0      0     -9     0.0     0.0      0    -9.00      0.0      0.0      0.0   100    19.3     3.865    84.9    3.282   32.819     100        2.19    0.000    0.000     363.0    122.2    0.40   122.2     200.0     120.0      97.6      70.8      51.0      40.0    0.000     0.000     0.000     0.000     0.000    0.40     0.00    0.00      0   -9.90   -9.00       31.2       30.5       30.3       30.2       30.1       30.1       30.1       30.1       30.1       30.1       30.1       30.1        0.0        0.0        0.0        0.0        0.0        0.0        0.0        0.0        0.0        0.0        0.0        0.0      1.9       1.1      -5.1      -0.5       4.1    423.08
    27     2  2025    -9     0     364.1     3.3      0.0    0.0    3.3    0.0      1.2      0.0   -9.90      1.0      1.0    100      0.0      0.0   100      1.0     1.0     100      0.0    0.40      4     -9      0      0     -9     0.0     0.0      0    -9.00      0.0      0.0      0.0   100    19.3     3.865    84.9    3.282   32.819     100        2.19    0.000    0.000     364.1    123.5    0.40   123.5     200.0     120.0      97.6      70.2      51.0      40.0    0.000     0.000     0.000     0.000     0.000    0.40     0.00    0.00      0   -9.90   -9.00       32.7       30.4       30.2       30.2       30.1       30.1       30.1       30.1       30.1       30.1       30.1       30.1        0.0        0.0        0.0        0.0        0.0        0.0        0.0        0.0        0.0        0.0        0.0        0.0      3.3       0.9      -3.2      -0.2       2.9    423.08
    28     2  2025    -9     0     369.2     8.0      0.0    0.0    7.5    0.4      1.3      0.0   -9.90      1.1      1.1    100      0.0      0.0   100      1.1     1.1     100      0.0    0.40      4     -9      0      0     -9     0.0     0.0      0    -9.00      0.0      0.0      0.0   100    19.3     3.865    84.9    3.282   32.819     100        2.19    0.000    0.000     369.2    128.4    0.40   128.4     200.0     120.0      97.6      70.6      51.0      40.0    0.000     0.000     0.000     0.000     0.000    0.40     0.00    0.00      0   -9.90   -9.00       37.2       30.7       30.4       30.2       30.2       30.1       30.1       30.1       30.1       30.1       30.1       30.1        0.0        0.0        0.0        0.0        0.0        0.0        0.0        0.0        0.0        0.0        0.0        0.0      8.0       1.0      -5.0      -0.5       4.0    423.08
     1     3  2025    -9     0     368.5     2.8      0.0    0.0    2.8    0.0      2.5      0.0   -9.90      1.0      1.0    100      0.0      0.0   100      1.0     1.0     100      0.0    0.40      4     -9      0      0     -9     0.0     0.0      0    -9.00      0.0      0.0      0.0   100    19.3     3.865    84.9    3.282   32.819     100        2.19    0.000    0.000     368.5    126.7    0.40   126.7     200.0     120.0      97.6      70.3      51.0      40.0    0.000     0.000     0.000     0.000     0.000    0.40     0.00    0.00      0   -9.90   -9.00       33.1       31.7       31.2       30.7       30.4       30.3       30.2       30.2       30.2       30.1       30.1       30.1        0.0        0.0        0.0        0.0        0.0        0.0        0.0        0.0        0.0        0.0        0.0        0.0      2.8       0.9      -5.4      -2.0       1.4    423.08
     2     3  2025    -9     0     368.3     4.3      0.0    0.0    4.3    0.0      3.5      0.0   -9.90      1.0      1.0    100      0.0      0.0   100      1.0     1.0     100      0.0    0.40      4     -9      0      0     -9     0.0     0.0      0    -9.00      0.0      0.0      0.0   100    19.3     3.865    84.9    3.282   32.819     100        2.19    0.000    0.000     368.3    126.3    0.40   126.3     200.0     120.0      97.6      70.3      51.0      40.0    0.000     0.000     0.000     0.000     0.000    0.40     0.00    0.00      0   -9.90   -9.00       34.2       30.9       30.6       30.5       30.4       30.3       30.3       30.2       30.2       30.2       30.2       30.1        0.0        0.0        0.0        0.0        0.0        0.0        0.0        0.0        0.0        0.0        0.0        0.0      4.3       0.9      -5.2      -1.7       1.8    423.08
     3     3  2025    -9     0     370.5     6.8      0.0    0.0    6.5    0.3      3.2      0.0   -9.90      1.0      1.0    100      0.0      0.0   100      1.0     1.0     100      0.0    0.40      4     -9      0      0     -9     0.0     0.0      0    -9.00      0.0      0.0      0.0   100    19.3     3.865    84.9    3.282   32.819     100        2.19    0.000    0.000     370.5    128.9    0.40   128.9     200.0     120.0      97.6      70.3      51.0      40.0    0.000     0.000     0.000     0.000     0.000    0.40     0.00    0.00      0   -9.90   -9.00       36.7       31.2       30.6       30.4       30.3       30.3       30.2       30.2       30.2       30.2       30.1       30.1        0.0        0.0        0.0        0.0        0.0        0.0        0.0        0.0        0.0        0.0        0.0        0.0      6.8       0.9      -5.1      -1.9       1.3    423.08
     4     3  2025    -9     0     366.1     0.2      0.0    0.0    0.2    0.0      3.5      0.0   -9.90      1.2      1.1     96      0.0      0.0   100      1.2     1.1      96      0.0    0.40      4     -9      0      0     -9     0.0     0.0      0    -9.00      0.0      0.0      0.0   100    19.3     3.865    84.9    3.282   32.819     100        2.19    0.000    0.000     366.1    124.1    0.40   124.1     200.0     120.0      97.6      70.7      51.0      40.0    0.000     0.000     0.000     0.000     0.000    0.40     0.00    0.00      0   -9.90   -9.00       30.8       31.7       30.9       30.6       30.4       30.3       30.3       30.2       30.2       30.2       30.2       30.2        0.0        0.0        0.0        0.0        0.0        0.0        0.0        0.0        0.0        0.0        0.0        0.0      0.2       1.1      -4.9      -1.4       2.1    423.08
     5     3  2025    -9     0     363.4     1.5      0.0    0.0    1.5    0.0      3.1      0.0   -9.90      1.1      1.1    100      0.0      0.0   100      1.1     1.1     100      0.0    0.40      4     -9      0      0     -9     0.0     0.0      0    -9.00      0.0      0.0      0.0   100    19.3     3.865    84.9    3.282   32.819     100        2.19    0.000    0.000     363.4    121.9    0.40   121.9     200.0     120.0      97.6      70.5      51.0      40.0    0.000     0.000     0.000     0.000     0.000    0.40     0.00    0.00      0   -9.90   -9.00       30.6       30.5       30.4       30.3       30.3       30.2       30.2       30.2       30.2       30.2       30.1       30.1        0.0        0.0        0.0        0.0        0.0        0.0        0.0        0.0        0.0        0.0        0.0        0.0      1.5       1.0      -4.4      -0.8       2.9    423.08
     6     3  2025    -9     0     365.0     4.6      0.0    0.0    4.6    0.1      1.9      0.0   -9.90      1.1      1.1    100      0.0      0.0   100      1.1     1.1     100      0.0    0.40      4     -9      0      0     -9     0.0     0.0      0    -9.00      0.0      0.0      0.0   100    19.3     3.865    84.9    3.282   32.819     100        2.19    0.000    0.000     365.0    124.2    0.40   124.2     200.0     120.0      97.6      70.4      51.0      40.0    0.000     0.000     0.000     0.000     0.000    0.40     0.00    0.00      0   -9.90   -9.00       33.7       30.2       30.2       30.2       30.1       30.1       30.1       30.1       30.1       30.1       30.1       30.1        0.0        0.0        0.0        0.0        0.0        0.0        0.0        0.0        0.0        0.0        0.0        0.0      4.6       1.0      -2.3       0.8       3.9    423.08
     7     3  2025    -9     0     368.3     6.4      0.0    0.0    6.2    0.2      1.6      0.0   -9.90      1.4      1.4    100      0.0      0.0   100      1.4     1.4     100      0.0    0.40      4     -9      0      0     -9     0.0     0.0      0    -9.00      0.0      0.0      0.0   100    19.3     3.865    84.9    3.282   32.819     100        2.19    0.000    0.000     368.3    127.5    0.40   127.5     200.0     120.0      97.6      71.1      51.0      40.0    0.000     0.000     0.000     0.000     0.000    0.40     0.00    0.00      0   -9.90   -9.00       35.9       30.8       30.4       30.3       30.2       30.1       30.1       30.1       30.1       30.1       30.1       30.1        0.0        0.0        0.0        0.0        0.0        0.0        0.0        0.0        0.0        0.0        0.0        0.0      6.4       1.2      -3.1       1.1       5.3    423.08
     8     3  2025    -9     0     367.4     2.9      0.0    0.0    2.9    0.0      2.4      0.0   -9.90      1.3      1.3    100      0.0      0.0   100      1.3     1.3     100      0.0    0.40      4     -9      0      0     -9     0.0     0.0      0    -9.00      0.0      0.0      0.0   100    19.3     3.865    84.9    3.282   32.819     100        2.19    0.000    0.000     367.4    125.8    0.40   125.8     200.0     120.0      97.6      71.0      51.0      40.0    0.000     0.000     0.000     0.000     0.000    0.40     0.00    0.00      0   -9.90   -9.00       32.8       31.5       30.8       30.7       30.4       30.3       30.2       30.2       30.2       30.1       30.1       30.1        0.0        0.0        0.0        0.0        0.0        0.0        0.0        0.0        0.0        0.0        0.0        0.0      2.9       1.2      -2.7       1.4       5.5    423.08
     9     3  2025    -9     0     364.5     1.4      0.0    0.0    1.4    0.0      3.2      0.0   -9.90      1.2      1.2    100      0.0      0.0   100      1.2     1.2     100      0.0    0.40      4     -9      0      0     -9     0.0     0.0      0    -9.00      0.0      0.0      0.0   100    19.3     3.865    84.9    3.282   32.819     100        2.19    0.000    0.000     364.5    122.7    0.40   122.7     200.0     120.0      97.6      70.8      51.0      40.0    0.000     0.000     0.000     0.000     0.000    0.40     0.00    0.00      0   -9.90   -9.00       30.8       30.8       30.6       30.4       30.3       30.3       30.3       30.2       30.2       30.2       30.2       30.1        0.0        0.0        0.0        0.0        0.0        0.0        0.0        0.0        0.0        0.0        0.0        0.0      1.4       1.1      -4.7      -0.8       3.1    423.08
    10     3  2025    -9     0     363.7     3.0      0.0    0.0    3.0    0.0      2.4      0.0   -9.90      1.4      1.4    100      0.0      0.0   100      1.4     1.4     100      0.0    0.40      4     -9      0      0     -9     0.0     0.0      0    -9.00      0.0      0.0      0.0   100    19.3     3.865    84.9    3.282   32.819     100        2.19    0.000    0.000     363.7    122.7    0.40   122.7     200.0     120.0      97.6      71.1      51.0      40.0    0.000     0.000     0.000     0.000     0.000    0.40     0.00    0.00      0   -9.90   -9.00       31.9       30.3       30.3       30.2       30.2       30.2       30.1       30.1       30.1       30.1       30.1       30.1        0.0        0.0        0.0        0.0        0.0        0.0        0.0        0.0        0.0        0.0        0.0        0.0      3.0       1.2      -4.0       0.1       4.3    423.08
    11     3  2025    -9     0     368.0     7.5      0.0    0.0    7.1    0.4      1.5      0.0   -9.90      1.3      1.3    100      0.0      0.0   100      1.3     1.3     100      0.0    0.40      4     -9      0      0     -9     0.0     0.0      0    -9.00      0.0      0.0      0.0   100    19.3     3.865    84.9    3.282   32.819     100        2.19    0.000    0.000     368.0    127.3    0.40   127.3     200.0     120.0      97.6      71.0      51.0      40.0    0.000     0.000     0.000     0.000     0.000    0.40     0.00    0.00      0   -9.90   -9.00       36.4       30.5       30.2       30.2       30.1       30.1       30.1       30.1       30.1       30.1       30.1       30.1        0.0        0.0        0.0        0.0        0.0        0.0        0.0        0.0        0.0        0.0        0.0        0.0      7.5       1.2      -2.6       1.2       5.0    423.08
    12     3  2025    -9     0     370.0     5.6      0.0    0.0    5.4    0.1      2.1      0.0   -9.90      1.3      1.3    100      0.0      0.0   100      1.3     1.3     100      0.0    0.40      4     -9      0      0     -9     0.0     0.0      0    -9.00      0.0      0.0      0.0   100    19.3     3.865    84.9    3.282   32.819     100        2.19    0.000    0.000     370.0    128.7    0.40   128.7     200.0     120.0      97.6      71.0      51.0      40.0    0.000     0.000     0.000     0.000     0.000    0.40     0.00    0.00      0   -9.90   -9.00       36.0       31.5       30.8       30.4       30.3       30.2       30.2       30.2       30.1       30.1       30.1       30.1        0.0        0.0        0.0        0.0        0.0        0.0        0.0        0.0        0.0        0.0        0.0        0.0      5.6       1.2      -2.5       1.2       5.0    423.08
    13     3  2025    -9     0     370.8     5.4      0.0    0.0    5.3    0.1      3.2      0.0   -9.90      1.2      1.2    100      0.0      0.0   100      1.2     1.2     100      0.0    0.40      4     -9      0      0     -9     0.0     0.0      0    -9.00      0.0      0.0      0.0   100    19.3     3.865    84.9    3.282   32.819     100        2.19    0.000    0.000     370.8    128.9    0.40   128.9     200.0     120.0      97.6      70.8      51.0      40.0    0.000     0.000     0.000     0.000     0.000    0.40     0.00    0.00      0   -9.90   -9.00       35.8       31.7       30.9       30.6       30.4       30.3       30.3       30.2       30.2       30.2       30.1       30.1        0.0        0.0        0.0        0.0        0.0        0.0        0.0        0.0        0.0        0.0        0.0        0.0      5.4       1.1      -1.9       1.2       4.4    423.08
    14     3  2025    -9     0     369.7     4.0      0.0    0.0    4.0    0.0      3.8      0.0   -9.90      1.3      1.3    100      0.0      0.0   100      1.3     1.3     100      0.0    0.40      4     -9      0      0     -9     0.0     0.0      0    -9.00      0.0      0.0      0.0   100    19.3     3.865    84.9    3.282   32.819     100        2.19    0.000    0.000     369.7    127.6    0.40   127.6     200.0     120.0      97.6      70.9      51.0      40.0    0.000     0.000     0.000     0.000     0.000    0.40     0.00    0.00      0   -9.90   -9.00       34.4       31.7       30.9       30.6       30.5       30.4       30.3       30.3       30.2       30.2       30.2       30.2        0.0        0.0        0.0        0.0        0.0        0.0        0.0        0.0        0.0        0.0        0.0        0.0      4.0       1.2      -2.8       0.6       4.0    423.08
    15     3  2025    -9     0     367.6     2.8      0.0    0.0    2.8    0.0      3.9      0.0   -9.90      1.0      1.0    100      0.0      0.0   100      1.0     1.0     100      0.0    0.40      4     -9      0      0     -9     0.0     0.0      0    -9.00      0.0      0.0      0.0   100    19.3     3.865    84.9    3.282   32.819     100        2.19    0.000    0.000     367.6    125.6    0.40   125.6     200.0     120.0      97.6      70.3      51.0      40.0    0.000     0.000     0.000     0.000     0.000    0.40     0.00    0.00      0   -9.90   -9.00       33.0       31.3       30.8       30.5       30.4       30.3       30.3       30.2       30.2       30.2       30.2       30.2        0.0        0.0        0.0        0.0        0.0        0.0        0.0        0.0        0.0        0.0        0.0        0.0      2.8       0.9      -4.2      -1.8       0.5    423.08
    16     3  2025    -9     0     363.4     0.6      0.0    0.0    0.6    0.0      3.3      0.0   -9.90      1.5      1.5     97      0.0      0.0   100      1.5     1.5      97      0.0    0.40      4     -9      0      0     -9     0.0     0.0      0    -9.00      0.0      0.0      0.0   100    19.3     3.865    84.9    3.282   32.819     100        2.19    0.000    0.000     363.4    121.6    0.40   121.6     200.0     120.0      97.6      71.4      51.0      40.0    0.000     0.000     0.000     0.000     0.000    0.40     0.00    0.00      0   -9.90   -9.00       29.4       30.9       30.9       30.4       30.4       30.3       30.3       30.2       30.2       30.2       30.2       30.1        0.0        0.0        0.0        0.0        0.0        0.0        0.0        0.0        0.0        0.0        0.0        0.0      0.6       1.4      -3.7       0.2       4.0    423.08
    17     3  2025    -9     0     362.6     2.6      0.0    0.0    2.6    0.0      2.3      0.0   -9.90      1.2      1.2    100      0.0      0.0   100      1.2     1.2     100      0.0    0.40      4     -9      0      0     -9     0.0     0.0      0    -9.00      0.0      0.0      0.0   100    19.3     3.865    84.9    3.282   32.819     100        2.19    0.000    0.000     362.6    121.6    0.40   121.6     200.0     120.0      97.6      70.8      51.0      40.0    0.000     0.000     0.000     0.000     0.000    0.40     0.00    0.00      0   -9.90   -9.00       30.8       30.3       30.3       30.2       30.2       30.2       30.1       30.1       30.1       30.1       30.1       30.1        0.0        0.0        0.0        0.0        0.0        0.0        0.0        0.0        0.0        0.0        0.0        0.0      2.6       1.1      -2.2       0.7       3.6    423.08
    18     3  2025    -9     0     363.4     3.5      0.0    0.0    3.5    0.0      1.3      0.0   -9.90      1.4      1.4    100      0.0      0.0   100      1.4     1.4     100      0.0    0.40      4     -9      0      0     -9     0.0     0.0      0    -9.00      0.0      0.0      0.0   100    19.3     3.865    84.9    3.282   32.819     100        2.19    0.000    0.000     363.4    122.9    0.40   122.9     200.0     120.0      97.6      71.2      51.0      40.0    0.000     0.000     0.000     0.000     0.000    0.40     0.00    0.00      0   -9.90   -9.00       32.4       30.3       30.1       30.1       30.1       30.1       30.1       30.1       30.1       30.1       30.1       30.1        0.0        0.0        0.0        0.0        0.0        0.0        0.0        0.0        0.0        0.0        0.0        0.0      3.5       1.3      -2.7       0.6       3.9    423.08
    19     3  2025    -9     0     362.5     1.7      0.0    0.0    1.7    0.0      1.1      0.0   -9.90      1.5      1.5    100      0.0      0.0   100      1.5     1.5     100      0.0    0.40      4     -9      0      0     -9     0.0     0.0      0    -9.00      0.0      0.0      0.0   100    19.3     3.865    84.9    3.282   32.819     100        2.19    0.000    0.000     362.5    121.9    0.40   121.9     200.0     120.0      97.6      71.4      51.0      40.0    0.000     0.000     0.000     0.000     0.000    0.40     0.00    0.00      0   -9.90   -9.00       30.9       30.6       30.3       30.2       30.1       30.1       30.1       30.1       30.1       30.1       30.0       30.0        0.0        0.0        0.0        0.0        0.0        0.0        0.0        0.0        0.0        0.0        0.0        0.0      1.7       1.4      -2.5       1.3       5.0    423.08
