AquaCrop 7.2 (August 2024) - Output created on (date) : 03-12-2024   at (time) : 11:18:10

   Run:   1
   Day Month  Year   DAP Stage   WC(1.20)   Rain     Irri   Surf   Infilt   RO    Drain       CR    Zgwt       Ex       E     E/Ex     Trx       Tr  Tr/Trx    ETx      ET  ET/ETx      GD       Z     StExp  StSto  StSen StSalt StWeed   CC      CCw     StTr  Kc(Tr)     Trx       Tr      TrW  Tr/Trx   WP    Biomass     HI    Y(dry)  Y(fresh)  Brelative    WPet      Bin     Bout  WC(1.20) Wr(0.40)     Z       Wr    Wr(SAT)    Wr(FC)   Wr(exp)   Wr(sto)   Wr(sen)   Wr(PWP)    SaltIn    SaltOut   SaltUp   Salt(1.20)  SaltZ     Z       ECe    ECsw   StSalt  Zgwt    ECgw       WC01       WC 2       WC 3       WC 4       WC 5       WC 6       WC 7       WC 8       WC 9       WC10       WC11       WC12      ECe01      ECe 2      ECe 3      ECe 4      ECe 5      ECe 6      ECe 7      ECe 8      ECe 9      ECe10      ECe11      ECe12     Rain       ETo      Tmin      Tavg      Tmax      CO2
                                      mm      mm       mm     mm     mm     mm       mm       mm      m        mm       mm     %        mm       mm    %        mm      mm       %  degC-day     m       %      %      %      %      %      %       %       %       -        mm       mm       mm    %     g/m2    ton/ha      %    ton/ha   ton/ha       %       kg/m3   ton/ha   ton/ha      mm       mm       m       mm        mm        mm        mm        mm        mm         mm    ton/ha    ton/ha    ton/ha    ton/ha    ton/ha     m      dS/m    dS/m      %     m      dS/m       0.05       0.15       0.25       0.35       0.45       0.55       0.65       0.75       0.85       0.95       1.05       1.15       0.05       0.15       0.25       0.35       0.45       0.55       0.65       0.75       0.85       0.95       1.05       1.15       mm        mm     degC      degC      degC       ppm
    25     3  2024     1     1     362.6     4.1      0.0    0.0    4.1    0.0      0.0      0.0   -9.90      1.5      1.5    100      0.0      0.0   100      1.5     1.5     100      0.0    0.30     -9     -9     -9      0     -9     0.0     0.0      0    -9.00      0.0      0.0      0.0   100     0.0     0.000    -9.9    0.000    0.000      -9        0.00    0.000    0.000     362.6    122.6    0.30    92.6     150.0      90.0      75.0      53.5      39.0      30.0    0.000     0.000     0.000     0.000     0.000    0.30     0.00    0.00      0   -9.90   -9.00       32.6       30.0       30.0       30.0       30.0       30.0       30.0       30.0       30.0       30.0       30.0       30.0        0.0        0.0        0.0        0.0        0.0        0.0        0.0        0.0        0.0        0.0        0.0        0.0      4.1       1.3      -1.0       2.6       6.2    423.08
    26     3  2024     2     1     362.9     2.4      0.0    0.0    2.4    0.0      0.5      0.0   -9.90      1.6      1.6    100      0.0      0.0   100      1.6     1.6     100      0.0    0.30     -9     -9     -9      0     -9     0.0     0.0      0    -9.00      0.0      0.0      0.0   100     0.0     0.000    -9.9    0.000    0.000      -9        0.00    0.000    0.000     362.9    122.6    0.30    92.4     150.0      90.0      75.0      53.7      39.0      30.0    0.000     0.000     0.000     0.000     0.000    0.30     0.00    0.00      0   -9.90   -9.00       31.6       30.6       30.3       30.1       30.1       30.1       30.1       30.0       30.0       30.0       30.0       30.0        0.0        0.0        0.0        0.0        0.0        0.0        0.0        0.0        0.0        0.0        0.0        0.0      2.4       1.5      -0.6       2.9       6.3    423.08
    27     3  2024     3     1     368.9     9.1      0.0    0.0    8.5    0.6      0.9      0.0   -9.90      1.5      1.5    100      0.0      0.0   100      1.5     1.5     100      0.0    0.30     -9     -9     -9      0     -9     0.0     0.0      0    -9.00      0.0      0.0      0.0   100     0.0     0.000    -9.9    0.000    0.000      -9        0.00    0.000    0.000     368.9    128.3    0.30    98.2     150.0      90.0      75.0      53.6      39.0      30.0    0.000     0.000     0.000     0.000     0.000    0.30     0.00    0.00      0   -9.90   -9.00       37.4       30.5       30.3       30.2       30.1       30.1       30.1       30.1       30.1       30.1       30.0       30.0        0.0        0.0        0.0        0.0        0.0        0.0        0.0        0.0        0.0        0.0        0.0        0.0      9.1       1.4      -0.8       2.8       6.5    423.08
    28     3  2024     4     1     368.0     3.0      0.0    0.0    3.0    0.0      2.3      0.0   -9.90      1.7      1.7    100      0.0      0.0   100      1.7     1.7     100      0.0    0.30     -9     -9     -9      0     -9     0.0     0.0      0    -9.00      0.0      0.0      0.0   100     0.0     0.000    -9.9    0.000    0.000      -9        0.00    0.000    0.000     368.0    126.3    0.30    95.5     150.0      90.0      75.0      53.8      39.0      30.0    0.000     0.000     0.000     0.000     0.000    0.30     0.00    0.00      0   -9.90   -9.00       32.6       31.7       31.2       30.7       30.4       30.3       30.2       30.2       30.2       30.1       30.1       30.1        0.0        0.0        0.0        0.0        0.0        0.0        0.0        0.0        0.0        0.0        0.0        0.0      3.0       1.5       0.2       3.6       7.1    423.08
    29     3  2024     5     1     364.3     1.5      0.0    0.0    1.5    0.0      3.5      0.0   -9.90      1.7      1.7    100      0.0      0.0   100      1.7     1.7     100      0.0    0.30     -9     -9     -9      0     -9     0.0     0.0      0    -9.00      0.0      0.0      0.0   100     0.0     0.000    -9.9    0.000    0.000      -9        0.00    0.000    0.000     364.3    122.4    0.30    91.9     150.0      90.0      75.0      53.9      39.0      30.0    0.000     0.000     0.000     0.000     0.000    0.30     0.00    0.00      0   -9.90   -9.00       30.5       30.8       30.6       30.5       30.4       30.3       30.3       30.2       30.2       30.2       30.2       30.1        0.0        0.0        0.0        0.0        0.0        0.0        0.0        0.0        0.0        0.0        0.0        0.0      1.5       1.6       0.2       3.1       6.0    423.08
    30     3  2024     6     1     363.9     3.6      0.0    0.0    3.6    0.0      2.4      0.0   -9.90      1.6      1.6    100      0.0      0.0   100      1.6     1.6     100      0.0    0.30     -9     -9     -9      0     -9     0.0     0.0      0    -9.00      0.0      0.0      0.0   100     0.0     0.000    -9.9    0.000    0.000      -9        0.00    0.000    0.000     363.9    122.8    0.30    92.6     150.0      90.0      75.0      53.6      39.0      30.0    0.000     0.000     0.000     0.000     0.000    0.30     0.00    0.00      0   -9.90   -9.00       32.2       30.2       30.2       30.2       30.2       30.2       30.1       30.1       30.1       30.1       30.1       30.1        0.0        0.0        0.0        0.0        0.0        0.0        0.0        0.0        0.0        0.0        0.0        0.0      3.6       1.4       0.3       3.8       7.2    423.08
    31     3  2024     7     1     367.9     7.4      0.0    0.0    7.1    0.4      1.5      0.0   -9.90      1.5      1.5    100      0.0      0.0   100      1.5     1.5     100      0.0    0.30     -9     -9     -9      0     -9     0.0     0.0      0    -9.00      0.0      0.0      0.0   100     0.0     0.000    -9.9    0.000    0.000      -9        0.00    0.000    0.000     367.9    127.2    0.30    97.1     150.0      90.0      75.0      53.5      39.0      30.0    0.000     0.000     0.000     0.000     0.000    0.30     0.00    0.00      0   -9.90   -9.00       36.3       30.5       30.3       30.2       30.1       30.1       30.1       30.1       30.1       30.1       30.1       30.1        0.0        0.0        0.0        0.0        0.0        0.0        0.0        0.0        0.0        0.0        0.0        0.0      7.4       1.3       0.5       4.0       7.6    423.08
     1     4  2024     8     1     371.2     7.5      0.0    0.0    7.1    0.4      2.1      0.0   -9.90      1.7      1.7    100      0.0      0.0   100      1.7     1.7     100      0.0    0.30     -9     -9     -9      0     -9     0.0     0.0      0    -9.00      0.0      0.0      0.0   100     0.0     0.000    -9.9    0.000    0.000      -9        0.00    0.000    0.000     371.2    129.9    0.30    99.5     150.0      90.0      75.0      53.8      39.0      30.0    0.000     0.000     0.000     0.000     0.000    0.30     0.00    0.00      0   -9.90   -9.00       37.2       31.5       30.8       30.4       30.3       30.2       30.2       30.2       30.1       30.1       30.1       30.1        0.0        0.0        0.0        0.0        0.0        0.0        0.0        0.0        0.0        0.0        0.0        0.0      7.5       1.5      -0.6       3.1       6.8    423.08
     2     4  2024     9     1     373.2     7.5      0.0    0.0    7.1    0.4      3.5      0.0   -9.90      1.6      1.6    100      0.0      0.0   100      1.6     1.6     100      0.0    0.30     -9     -9     -9      0     -9     0.0     0.0      0    -9.00      0.0      0.0      0.0   100     0.0     0.000    -9.9    0.000    0.000      -9        0.00    0.000    0.000     373.2    131.2    0.30   100.5     150.0      90.0      75.0      53.7      39.0      30.0    0.000     0.000     0.000     0.000     0.000    0.30     0.00    0.00      0   -9.90   -9.00       37.6       31.9       31.0       30.7       30.5       30.4       30.3       30.2       30.2       30.2       30.2       30.1        0.0        0.0        0.0        0.0        0.0        0.0        0.0        0.0        0.0        0.0        0.0        0.0      7.5       1.5      -0.9       2.3       5.6    423.08
     3     4  2024    10     1     370.7     3.7      0.0    0.0    3.7    0.0      4.7      0.0   -9.90      1.5      1.5    100      0.0      0.0   100      1.5     1.5     100      0.0    0.30     -9     -9     -9      0     -9     0.0     0.0      0    -9.00      0.0      0.0      0.0   100     0.0     0.000    -9.9    0.000    0.000      -9        0.00    0.000    0.000     370.7    127.8    0.30    96.9     150.0      90.0      75.0      53.6      39.0      30.0    0.000     0.000     0.000     0.000     0.000    0.30     0.00    0.00      0   -9.90   -9.00       33.6       32.1       31.1       30.9       30.7       30.5       30.4       30.3       30.3       30.3       30.2       30.2        0.0        0.0        0.0        0.0        0.0        0.0        0.0        0.0        0.0        0.0        0.0        0.0      3.7       1.4      -1.2       1.7       4.6    423.08
     4     4  2024    11     1     368.3     4.2      0.0    0.0    4.1    0.0      4.7      0.0   -9.90      1.8      1.8    100      0.0      0.0   100      1.8     1.8     100      0.0    0.30     -9     -9     -9      0     -9     0.0     0.0      0    -9.00      0.0      0.0      0.0   100     0.0     0.000    -9.9    0.000    0.000      -9        0.00    0.000    0.000     368.3    125.9    0.30    95.3     150.0      90.0      75.0      54.0      39.0      30.0    0.000     0.000     0.000     0.000     0.000    0.30     0.00    0.00      0   -9.90   -9.00       33.4       31.1       30.8       30.6       30.5       30.4       30.3       30.3       30.3       30.2       30.2       30.2        0.0        0.0        0.0        0.0        0.0        0.0        0.0        0.0        0.0        0.0        0.0        0.0      4.2       1.6      -1.1       2.8       6.8    423.08
     5     4  2024    12     1     369.0     6.4      0.0    0.0    6.2    0.2      3.6      0.0   -9.90      1.8      1.8    100      0.0      0.0   100      1.8     1.8     100      0.7    0.30     -9     -9     -9      0     -9     0.0     0.0      0    -9.00      0.0      0.0      0.0   100     0.0     0.000    -9.9    0.000    0.000      -9        0.00    0.000    0.000     369.0    127.3    0.30    96.9     150.0      90.0      75.0      54.1      39.0      30.0    0.000     0.000     0.000     0.000     0.000    0.30     0.00    0.00      0   -9.90   -9.00       35.4       31.0       30.5       30.4       30.3       30.3       30.2       30.2       30.2       30.2       30.2       30.1        0.0        0.0        0.0        0.0        0.0        0.0        0.0        0.0        0.0        0.0        0.0        0.0      6.4       1.7       1.0       4.7       8.5    423.08
     6     4  2024    13     1     367.2     3.3      0.0    0.0    3.3    0.0      3.2      0.0   -9.90      1.9      1.9    100      0.0      0.0   100      1.9     1.9     100      0.3    0.30     -9     -9     -9      0     -9     0.0     0.0      0    -9.00      0.0      0.0      0.0   100     0.0     0.000    -9.9    0.000    0.000      -9        0.00    0.000    0.000     367.2    125.5    0.30    95.0     150.0      90.0      75.0      54.2      39.0      30.0    0.000     0.000     0.000     0.000     0.000    0.30     0.00    0.00      0   -9.90   -9.00       32.8       31.4       30.7       30.5       30.3       30.3       30.3       30.2       30.2       30.2       30.2       30.1        0.0        0.0        0.0        0.0        0.0        0.0        0.0        0.0        0.0        0.0        0.0        0.0      3.3       1.7       0.6       4.3       8.0    423.08
     7     4  2024    14     1     364.2     1.9      0.0    0.0    1.9    0.0      3.0      0.0   -9.90      1.9      1.9    100      0.0      0.0   100      1.9     1.9     100      0.0    0.30     -9     -9     -9      0     -9     0.0     0.0      0    -9.00      0.0      0.0      0.0   100     0.0     0.000    -9.9    0.000    0.000      -9        0.00    0.000    0.000     364.2    122.7    0.30    92.3     150.0      90.0      75.0      54.1      39.0      30.0    0.000     0.000     0.000     0.000     0.000    0.30     0.00    0.00      0   -9.90   -9.00       30.9       30.9       30.6       30.4       30.3       30.3       30.2       30.2       30.2       30.1       30.1       30.1        0.0        0.0        0.0        0.0        0.0        0.0        0.0        0.0        0.0        0.0        0.0        0.0      1.9       1.7      -0.3       3.5       7.4    423.08
     8     4  2024    15     1     361.6     1.6      0.0    0.0    1.6    0.0      2.2      0.0   -9.90      2.0      2.0    100      0.0      0.0   100      2.0     2.0     100      0.2    0.30     -9     -9     -9      0     -9     0.0     0.0      0    -9.00      0.0      0.0      0.0   100     0.0     0.000    -9.9    0.000    0.000      -9        0.00    0.000    0.000     361.6    120.6    0.30    90.4     150.0      90.0      75.0      54.4      39.0      30.0    0.000     0.000     0.000     0.000     0.000    0.30     0.00    0.00      0   -9.90   -9.00       29.8       30.3       30.3       30.2       30.2       30.2       30.1       30.1       30.1       30.1       30.1       30.1        0.0        0.0        0.0        0.0        0.0        0.0        0.0        0.0        0.0        0.0        0.0        0.0      1.6       1.8       0.3       4.2       8.2    423.08
     9     4  2024    16     1     359.7     1.2      0.0    0.0    1.2    0.0      1.1      0.0   -9.90      2.0      2.0     98      0.0      0.0   100      2.0     2.0      98      1.4    0.30     -9      0      0      0      0     1.0     1.0     93     0.02      0.0      0.0      0.0   100    19.3     0.000    82.2    0.000    0.002     100        0.00    0.000    0.000     359.7    119.3    0.30    89.2     150.0      90.0      68.3      54.4      36.2      30.0    0.000     0.000     0.000     0.000     0.000    0.30     0.00    0.00      0   -9.90   -9.00       29.0       30.1       30.1       30.1       30.1       30.1       30.1       30.1       30.1       30.0       30.0       30.0        0.0        0.0        0.0        0.0        0.0        0.0        0.0        0.0        0.0        0.0        0.0        0.0      1.2       1.9       1.8       5.4       9.0    423.08
    10     4  2024    17     2     360.3     3.2      0.0    0.0    3.2    0.0      0.4      0.0   -9.90      2.2      2.2    100      0.0      0.0   100      2.2     2.2     100      2.0    0.30     -9      0      0      0      0     1.0     1.0     85     0.02      0.0      0.0      0.0   100    19.3     0.001    84.1    0.001    0.007     100        0.00    0.000    0.000     360.3    120.2    0.30    90.2     150.0      90.0      68.6      54.7      36.3      30.0    0.000     0.000     0.000     0.000     0.000    0.30     0.00    0.00      0   -9.90   -9.00       30.1       30.0       30.0       30.0       30.0       30.0       30.0       30.0       30.0       30.0       30.0       30.0        0.0        0.0        0.0        0.0        0.0        0.0        0.0        0.0        0.0        0.0        0.0        0.0      3.2       2.0       1.8       6.0      10.3    423.08
    11     4  2024    18     2     360.8     2.7      0.0    0.0    2.7    0.0      0.2      0.0   -9.90      2.1      2.1    100      0.0      0.0   100      2.1     2.1     100      3.2    0.30     -9      0      0      0      0     1.1     1.1     58     0.02      0.0      0.0      0.0   100    19.3     0.002    84.7    0.002    0.021     100        0.01    0.000    0.000     360.8    120.7    0.30    90.7     150.0      90.0      68.4      54.5      36.2      30.0    0.000     0.000     0.000     0.000     0.000    0.30     0.00    0.00      0   -9.90   -9.00       30.6       30.0       30.0       30.0       30.0       30.0       30.0       30.0       30.0       30.0       30.0       30.0        0.0        0.0        0.0        0.0        0.0        0.0        0.0        0.0        0.0        0.0        0.0        0.0      2.7       1.9       3.8       7.2      10.7    423.08
    12     4  2024    19     2     360.9     2.9      0.0    0.0    2.9    0.0      0.2      0.0   -9.90      2.6      2.6    100      0.0      0.0   100      2.6     2.6     100      3.6    0.30     -9      0      0      0      0     1.2     1.2     49     0.02      0.0      0.0      0.0   100    19.3     0.005    84.8    0.004    0.039     100        0.01    0.000    0.000     360.9    120.8    0.30    90.7     150.0      90.0      69.4      55.4      36.7      30.0    0.000     0.000     0.000     0.000     0.000    0.30     0.00    0.00      0   -9.90   -9.00       30.5       30.1       30.1       30.0       30.0       30.0       30.0       30.0       30.0       30.0       30.0       30.0        0.0        0.0        0.0        0.0        0.0        0.0        0.0        0.0        0.0        0.0        0.0        0.0      2.9       2.4       2.6       7.6      12.5    423.08
    13     4  2024    20     2     362.1     3.9      0.0    0.0    3.9    0.0      0.3      0.0   -9.90      2.4      2.4    100      0.0      0.0   100      2.4     2.4     100      2.0    0.30     -9      0      0      0      0     1.2     1.2     86     0.02      0.0      0.0      0.0   100    19.3     0.005    84.9    0.004    0.045     100        0.01    0.000    0.000     362.1    121.9    0.30    91.9     150.0      90.0      69.0      55.0      36.5      30.0    0.000     0.000     0.000     0.000     0.000    0.30     0.00    0.00      0   -9.90   -9.00       31.6       30.2       30.1       30.1       30.0       30.0       30.0       30.0       30.0       30.0       30.0       30.0        0.0        0.0        0.0        0.0        0.0        0.0        0.0        0.0        0.0        0.0        0.0        0.0      3.9       2.2       1.5       6.0      10.4    423.08
    14     4  2024    21     2     361.5     2.1      0.0    0.0    2.1    0.0      0.5      0.0   -9.90      2.1      2.1    100      0.0      0.0   100      2.1     2.1     100      1.5    0.30     -9      0      0      0      0     1.3     1.3     92     0.02      0.0      0.0      0.0   100    19.3     0.006    84.9    0.005    0.048     100        0.01    0.000    0.000     361.5    121.2    0.30    91.1     150.0      90.0      68.5      54.6      36.3      30.0    0.000     0.000     0.000     0.000     0.000    0.30     0.00    0.00      0   -9.90   -9.00       30.5       30.4       30.2       30.1       30.1       30.1       30.0       30.0       30.0       30.0       30.0       30.0        0.0        0.0        0.0        0.0        0.0        0.0        0.0        0.0        0.0        0.0        0.0        0.0      2.1       2.0       1.3       5.5       9.6    423.08
    15     4  2024    22     2     362.6     4.1      0.0    0.0    4.1    0.0      0.6      0.0   -9.90      2.4      2.4    100      0.0      0.0   100      2.4     2.4     100      2.2    0.30      0      0      0      0      0     1.3     1.3     81     0.02      0.0      0.0      0.0   100    19.3     0.006    84.9    0.006    0.055     100        0.01    0.000    0.000     362.6    122.2    0.30    92.1     150.0      90.0      69.0      55.0      36.5      30.0    0.000     0.000     0.000     0.000     0.000    0.30     0.00    0.00      0   -9.90   -9.00       31.9       30.1       30.1       30.1       30.1       30.1       30.1       30.0       30.0       30.0       30.0       30.0        0.0        0.0        0.0        0.0        0.0        0.0        0.0        0.0        0.0        0.0        0.0        0.0      4.1       2.2       1.9       6.2      10.6    423.08
    16     4  2024    23     2     361.2     1.6      0.0    0.0    1.6    0.0      0.8      0.0   -9.90      2.2      2.2     99      0.0      0.0   100      2.2     2.2      99      1.5    0.30      0      0      0      0      0     1.3     1.3     92     0.02      0.0      0.0      0.0   100    19.3     0.007    84.9    0.006    0.058     100        0.01    0.000    0.000     361.2    120.7    0.30    90.6     150.0      90.0      68.7      54.8      36.4      30.0    0.000     0.000     0.000     0.000     0.000    0.30     0.00    0.00      0   -9.90   -9.00       29.9       30.4       30.2       30.1       30.1       30.1       30.1       30.1       30.0       30.0       30.0       30.0        0.0        0.0        0.0        0.0        0.0        0.0        0.0        0.0        0.0        0.0        0.0        0.0      1.6       2.1       1.4       5.5       9.6    423.08
    17     4  2024    24     2     362.3     3.9      0.0    0.0    3.9    0.0      0.6      0.0   -9.90      2.1      2.1    100      0.0      0.0   100      2.1     2.1     100      1.1    0.30      0      0      0      0      0     1.4     1.4     95     0.03      0.0      0.0      0.0   100    19.3     0.007    84.9    0.006    0.060     100        0.01    0.000    0.000     362.3    122.0    0.30    91.9     150.0      90.0      68.6      54.6      36.3      30.0    0.000     0.000     0.000     0.000     0.000    0.30     0.00    0.00      0   -9.90   -9.00       31.7       30.1       30.1       30.1       30.1       30.1       30.0       30.0       30.0       30.0       30.0       30.0        0.0        0.0        0.0        0.0        0.0        0.0        0.0        0.0        0.0        0.0        0.0        0.0      3.9       2.0       1.2       5.1       9.0    423.08
    18     4  2024    25     2     367.3     8.3      0.0    0.0    7.8    0.5      0.7      0.0   -9.90      2.1      2.1    100      0.0      0.0   100      2.1     2.1     100      2.6    0.30      0      0      0      0      0     1.4     1.4     75     0.03      0.0      0.0      0.0   100    19.3     0.008    84.9    0.007    0.071     100        0.01    0.000    0.000     367.3    127.0    0.30    96.8     150.0      90.0      68.5      54.6      36.3      30.0    0.000     0.000     0.000     0.000     0.000    0.30     0.00    0.00      0   -9.90   -9.00       36.2       30.4       30.2       30.1       30.1       30.1       30.1       30.0       30.0       30.0       30.0       30.0        0.0        0.0        0.0        0.0        0.0        0.0        0.0        0.0        0.0        0.0        0.0        0.0      8.3       2.0       2.9       6.6      10.3    423.08
    19     4  2024    26     2     363.6     0.4      0.0    0.0    0.4    0.0      1.8      0.0   -9.90      2.5      2.4     94      0.0      0.0   100      2.6     2.4      94      3.5    0.30      0      0      0      0      0     1.5     1.5     51     0.03      0.0      0.0      0.0   100    19.3     0.011    84.9    0.009    0.094     100        0.02    0.000    0.000     363.6    122.2    0.30    92.9     152.2      91.3      70.4      56.2      37.2      30.4    0.000     0.000     0.000     0.000     0.000    0.30     0.00    0.00      0   -9.90   -9.00       29.4       31.4       30.7       30.6       30.3       30.3       30.2       30.2       30.1       30.1       30.1       30.1        0.0        0.0        0.0        0.0        0.0        0.0        0.0        0.0        0.0        0.0        0.0        0.0      0.4       2.4       3.8       7.5      11.2    423.08
    20     4  2024    27     2     365.2     6.3      0.0    0.0    6.1    0.2      2.1      0.0   -9.90      2.3      2.3    100      0.0      0.0   100      2.4     2.4     100      2.8    0.31      0      0      0      0      0     1.6     1.6     70     0.03      0.0      0.0      0.0   100    19.3     0.013    84.9    0.011    0.108     100        0.02    0.000    0.000     365.2    124.1    0.31    97.2     155.7      93.4      71.6      57.1      37.9      31.1    0.000     0.000     0.000     0.000     0.000    0.31     0.00    0.00      0   -9.90   -9.00       33.2       30.4       30.2       30.2       30.2       30.2       30.2       30.1       30.1       30.1       30.1       30.1        0.0        0.0        0.0        0.0        0.0        0.0        0.0        0.0        0.0        0.0        0.0        0.0      6.3       2.2       2.7       6.8      10.9    423.08
    21     4  2024    28     2     365.1     3.8      0.0    0.0    3.7    0.0      1.8      0.0   -9.90      2.0      2.0    100      0.0      0.0   100      2.0     2.0     100      1.9    0.32      0      0      0      0      0     1.7     1.7     87     0.03      0.0      0.0      0.0   100    19.3     0.013    84.9    0.011    0.115     100        0.02    0.000    0.000     365.1    124.1    0.32    98.7     157.9      94.8      72.0      57.3      38.1      31.6    0.000     0.000     0.000     0.000     0.000    0.32     0.00    0.00      0   -9.90   -9.00       32.7       30.8       30.4       30.2       30.2       30.2       30.1       30.1       30.1       30.1       30.1       30.1        0.0        0.0        0.0        0.0        0.0        0.0        0.0        0.0        0.0        0.0        0.0        0.0      3.8       1.9       2.3       5.9       9.5    423.08
    22     4  2024    29     2     361.2     0.3      0.0    0.0    0.3    0.0      1.8      0.0   -9.90      2.5      2.3     90      0.0      0.0   100      2.5     2.3      90      1.0    0.32      0      0      0      0      0     1.7     1.7     96     0.03      0.0      0.0      0.0   100    19.3     0.014    84.9    0.012    0.117     100        0.02    0.000    0.000     361.2    120.1    0.32    95.3     159.1      95.5      73.6      58.7      38.9      31.8    0.000     0.000     0.000     0.000     0.000    0.32     0.00    0.00      0   -9.90   -9.00       28.5       30.8       30.4       30.4       30.2       30.2       30.1       30.1       30.1       30.1       30.1       30.1        0.0        0.0        0.0        0.0        0.0        0.0        0.0        0.0        0.0        0.0        0.0        0.0      0.3       2.4       1.0       5.0       9.1    423.08
    23     4  2024    30     2     358.7     1.3      0.0    0.0    1.3    0.0      1.5      0.0   -9.90      2.4      2.4     97      0.0      0.0   100      2.4     2.4      97      1.9    0.32      0      0      0      0      0     1.7     1.7     87     0.03      0.0      0.0      0.0   100    19.3     0.015    85.0    0.012    0.124     100        0.02    0.000    0.000     358.7    118.0    0.32    94.7     161.4      96.8      74.5      59.4      39.4      32.3    0.000     0.000     0.000     0.000     0.000    0.32     0.00    0.00      0   -9.90   -9.00       27.5       30.3       30.1       30.1       30.1       30.1       30.1       30.1       30.1       30.1       30.1       30.1        0.0        0.0        0.0        0.0        0.0        0.0        0.0        0.0        0.0        0.0        0.0        0.0      1.3       2.3       1.5       5.9      10.3    423.08
    24     4  2024    31     2     362.3     6.5      0.0    0.0    6.4    0.1      0.8      0.0   -9.90      2.0      2.0    100      0.0      0.0   100      2.0     2.0     100      2.4    0.33      0      0      0      0      0     1.8     1.8     78     0.03      0.0      0.0      0.0   100    19.3     0.016    85.0    0.014    0.136     100        0.02    0.000    0.000     362.3    122.0    0.33   100.5     164.1      98.5      74.8      59.6      39.7      32.8    0.000     0.000     0.000     0.000     0.000    0.33     0.00    0.00      0   -9.90   -9.00       31.8       30.1       30.0       30.0       30.0       30.0       30.0       30.0       30.0       30.0       30.0       30.0        0.0        0.0        0.0        0.0        0.0        0.0        0.0        0.0        0.0        0.0        0.0        0.0      6.5       1.9       2.5       6.4      10.3    423.08
    25     4  2024    32     2     362.6     3.1      0.0    0.0    3.1    0.0      0.6      0.0   -9.90      2.2      2.2    100      0.0      0.0   100      2.2     2.2     100      2.9    0.33      0      0      0      0      0     1.9     1.9     66     0.04      0.0      0.0      0.0   100    19.3     0.018    85.0    0.016    0.155     100        0.02    0.000    0.000     362.6    122.2    0.33   102.6     167.4     100.4      76.7      61.1      40.6      33.5    0.000     0.000     0.000     0.000     0.000    0.33     0.00    0.00      0   -9.90   -9.00       31.5       30.4       30.2       30.1       30.1       30.1       30.0       30.0       30.0       30.0       30.0       30.0        0.0        0.0        0.0        0.0        0.0        0.0        0.0        0.0        0.0        0.0        0.0        0.0      3.1       2.1       2.8       6.9      11.1    423.08
    26     4  2024    33     2     362.9     3.4      0.0    0.0    3.4    0.0      0.8      0.0   -9.90      2.2      2.2    100      0.0      0.0   100      2.2     2.2     100      2.5    0.34      0      0      0      0      0     2.0     2.0     77     0.04      0.0      0.0      0.0   100    19.3     0.020    85.0    0.017    0.169     100        0.03    0.000    0.000     362.9    122.4    0.34   104.4     170.1     102.1      78.0      62.2      41.3      34.0    0.000     0.000     0.000     0.000     0.000    0.34     0.00    0.00      0   -9.90   -9.00       31.6       30.4       30.2       30.1       30.1       30.1       30.1       30.1       30.0       30.0       30.0       30.0        0.0        0.0        0.0        0.0        0.0        0.0        0.0        0.0        0.0        0.0        0.0        0.0      3.4       2.1       3.2       6.5       9.7    423.08
    27     4  2024    34     2     360.5     0.9      0.0    0.0    0.9    0.0      1.0      0.0   -9.90      2.4      2.2     95      0.0      0.0   100      2.4     2.3      95      2.7    0.35      0      0      0      0      0     2.1     2.1     73     0.04      0.0      0.0      0.0   100    19.3     0.022    85.0    0.019    0.187     100        0.03    0.000    0.000     360.5    119.9    0.35   103.6     172.9     103.8      79.6      63.5      42.1      34.6    0.000     0.000     0.000     0.000     0.000    0.35     0.00    0.00      0   -9.90   -9.00       29.0       30.5       30.2       30.2       30.1       30.1       30.1       30.1       30.1       30.1       30.0       30.0        0.0        0.0        0.0        0.0        0.0        0.0        0.0        0.0        0.0        0.0        0.0        0.0      0.9       2.2       2.6       6.7      10.7    423.08
    28     4  2024    35     2     360.7     3.4      0.0    0.0    3.4    0.0      0.8      0.0   -9.90      2.4      2.4    100      0.0      0.0   100      2.4     2.4     100      2.6    0.35      0      0      0      0      0     2.2     2.2     73     0.04      0.0      0.0      0.0   100    19.3     0.024    85.0    0.020    0.204     100        0.03    0.000    0.000     360.7    120.3    0.35   105.7     175.7     105.4      81.0      64.6      42.8      35.1    0.000     0.000     0.000     0.000     0.000    0.35     0.00    0.00      0   -9.90   -9.00       30.0       30.2       30.1       30.1       30.1       30.1       30.1       30.0       30.0       30.0       30.0       30.0        0.0        0.0        0.0        0.0        0.0        0.0        0.0        0.0        0.0        0.0        0.0        0.0      3.4       2.3       2.5       6.6      10.7    423.08
    29     4  2024    36     2     361.4     3.5      0.0    0.0    3.5    0.0      0.4      0.0   -9.90      2.3      2.3    100      0.0      0.0   100      2.3     2.3     100      2.4    0.36      0      0      0      0      0     2.3     2.3     78     0.04      0.0      0.0      0.0   100    19.3     0.026    85.0    0.022    0.220     100        0.03    0.000    0.000     361.4    121.2    0.36   108.1     178.2     106.9      81.9      65.3      43.3      35.6    0.000     0.000     0.000     0.000     0.000    0.36     0.00    0.00      0   -9.90   -9.00       31.1       30.0       30.0       30.0       30.0       30.0       30.0       30.0       30.0       30.0       30.0       30.0        0.0        0.0        0.0        0.0        0.0        0.0        0.0        0.0        0.0        0.0        0.0        0.0      3.5       2.2       2.4       6.4      10.4    423.08
    30     4  2024    37     2     364.2     6.0      0.0    0.0    5.8    0.2      0.4      0.0   -9.90      2.5      2.5    100      0.1      0.1   100      2.6     2.6     100      4.1    0.36      0      0      0      0      0     2.5     2.5     35     0.05      0.1      0.1      0.1   100    19.3     0.032    85.0    0.027    0.269     100        0.04    0.000    0.000     364.2    124.0    0.36   113.4     182.3     109.4      84.5      67.4      44.6      36.5    0.000     0.000     0.000     0.000     0.000    0.36     0.00    0.00      0   -9.90   -9.00       33.6       30.3       30.1       30.1       30.0       30.0       30.0       30.0       30.0       30.0       30.0       30.0        0.0        0.0        0.0        0.0        0.0        0.0        0.0        0.0        0.0        0.0        0.0        0.0      6.0       2.4       3.6       8.1      12.6    423.08
     1     5  2024    38     2     362.7     2.3      0.0    0.0    2.3    0.0      1.0      0.0   -9.90      2.7      2.7     99      0.1      0.1   100      2.8     2.8      99      4.6    0.37      0      0      0      0      0     2.7     2.7     24     0.05      0.1      0.1      0.1   100    19.3     0.039    85.0    0.033    0.331     100        0.04    0.000    0.000     362.7    122.0    0.37   114.0     186.8     112.1      86.9      69.3      45.9      37.4    0.000     0.000     0.000     0.000     0.000    0.37     0.00    0.00      0   -9.90   -9.00       30.5       30.8       30.4       30.2       30.2       30.1       30.1       30.1       30.1       30.1       30.1       30.0        0.0        0.0        0.0        0.0        0.0        0.0        0.0        0.0        0.0        0.0        0.0        0.0      2.3       2.6       4.6       8.6      12.5    423.08
     2     5  2024    39     2     359.7     0.8      0.0    0.0    0.8    0.0      1.3      0.0   -9.90      2.6      2.4     94      0.1      0.1   100      2.7     2.5      94      4.5    0.38      0      0      0      0      0     2.9     2.9     25     0.05      0.1      0.1      0.1   100    19.3     0.047    85.0    0.040    0.397     100        0.05    0.000    0.000     359.7    119.0    0.38   113.6     191.1     114.7      88.7      70.7      46.8      38.2    0.000     0.000     0.000     0.000     0.000    0.38     0.00    0.00      0   -9.90   -9.00       28.4       30.3       30.2       30.2       30.1       30.1       30.1       30.1       30.1       30.1       30.1       30.1        0.0        0.0        0.0        0.0        0.0        0.0        0.0        0.0        0.0        0.0        0.0        0.0      0.8       2.5       4.4       8.5      12.6    423.08
     3     5  2024    40     2     360.0     3.7      0.0    0.0    3.7    0.0      0.8      0.0   -9.90      2.5      2.5    100      0.1      0.1   100      2.6     2.6     100      4.9    0.39      0      0      0      0      0     3.2     3.2     18     0.06      0.1      0.1      0.1   100    19.3     0.056    85.0    0.048    0.475     100        0.06    0.000    0.000     360.0    119.7    0.39   117.0     195.6     117.4      90.6      72.2      47.8      39.1    0.000     0.000     0.000     0.000     0.000    0.39     0.00    0.00      0   -9.90   -9.00       29.5       30.1       30.1       30.1       30.0       30.0       30.0       30.0       30.0       30.0       30.0       30.0        0.0        0.0        0.0        0.0        0.0        0.0        0.0        0.0        0.0        0.0        0.0        0.0      3.7       2.4       4.9       8.9      12.9    423.08
     4     5  2024    41     2     362.5     5.7      0.0    0.0    5.5    0.1      0.3      0.0   -9.90      2.6      2.6    100      0.1      0.1   100      2.7     2.7     100      5.6    0.40      0      0      0      0      0     3.5     3.5      9     0.06      0.1      0.1      0.1   100    19.3     0.067    85.0    0.057    0.571     100        0.07    0.000    0.000     362.5    122.3    0.40   122.3     200.0     120.0      92.8      74.0      49.0      40.0    0.000     0.000     0.000     0.000     0.000    0.40     0.00    0.00      0   -9.90   -9.00       32.3       30.0       30.0       30.0       30.0       30.0       30.0       30.0       30.0       30.0       30.0       30.0        0.0        0.0        0.0        0.0        0.0        0.0        0.0        0.0        0.0        0.0        0.0        0.0      5.7       2.5       5.6       9.6      13.7    423.08
     5     5  2024    42     2     360.3     1.5      0.0    0.0    1.5    0.0      0.5      0.0   -9.90      3.0      3.0     97      0.2      0.2   100      3.2     3.1      97      5.0    0.40      0      0      0      0      0     3.8     3.8     16     0.07      0.2      0.2      0.2   100    19.3     0.079    85.0    0.067    0.668     100        0.08    0.000    0.000     360.3    119.9    0.40   119.9     200.0     120.0      94.2      75.1      49.6      40.0    0.000     0.000     0.000     0.000     0.000    0.40     0.00    0.00      0   -9.90   -9.00       29.1       30.5       30.3       30.1       30.1       30.1       30.0       30.0       30.0       30.0       30.0       30.0        0.0        0.0        0.0        0.0        0.0        0.0        0.0        0.0        0.0        0.0        0.0        0.0      1.5       3.0       4.3       9.0      13.8    423.08
     6     5  2024    43     2     358.1     1.4      0.0    0.0    1.4    0.0      0.6      0.0   -9.90      3.0      2.8     96      0.2      0.2   100      3.1     3.0      96      4.3    0.40      0      0      0      0      0     4.2     4.2     30     0.08      0.2      0.2      0.2   100    19.3     0.089    85.0    0.076    0.755     100        0.08    0.000    0.000     358.1    117.8    0.40   117.8     200.0     120.0      94.0      75.0      49.5      40.0    0.000     0.000     0.000     0.000     0.000    0.40     0.00    0.00      0   -9.90   -9.00       27.5       30.2       30.1       30.1       30.1       30.1       30.0       30.0       30.0       30.0       30.0       30.0        0.0        0.0        0.0        0.0        0.0        0.0        0.0        0.0        0.0        0.0        0.0        0.0      1.4       2.9       3.9       8.3      12.7    423.08
     7     5  2024    44     2     359.1     4.1      0.0    0.0    4.1    0.0      0.4      0.0   -9.90      2.5      2.5    100      0.1      0.1   100      2.7     2.7     100      4.2    0.40      0      0      0      0      0     4.5     4.5     33     0.08      0.1      0.1      0.1   100    19.3     0.099    85.0    0.084    0.844     100        0.09    0.000    0.000     359.1    119.0    0.40   119.0     200.0     120.0      92.9      74.1      49.0      40.0    0.000     0.000     0.000     0.000     0.000    0.40     0.00    0.00      0   -9.90   -9.00       28.9       30.0       30.0       30.0       30.0       30.0       30.0       30.0       30.0       30.0       30.0       30.0        0.0        0.0        0.0        0.0        0.0        0.0        0.0        0.0        0.0        0.0        0.0        0.0      4.1       2.5       4.4       8.2      11.9    423.08
     8     5  2024    45     2     359.6     3.1      0.0    0.0    3.1    0.0      0.2      0.0   -9.90      2.3      2.3    100      0.1      0.1   100      2.5     2.5     100      4.1    0.40      0      0      0      0      0     4.8     4.8     35     0.09      0.1      0.1      0.1   100    19.3     0.110    85.0    0.094    0.937     100        0.10    0.000    0.000     359.6    119.5    0.40   119.5     200.0     120.0      92.4      73.6      48.8      40.0    0.000     0.000     0.000     0.000     0.000    0.40     0.00    0.00      0   -9.90   -9.00       29.5       30.0       30.0       30.0       30.0       30.0       30.0       30.0       30.0       30.0       30.0       30.0        0.0        0.0        0.0        0.0        0.0        0.0        0.0        0.0        0.0        0.0        0.0        0.0      3.1       2.3       4.3       8.1      11.9    423.08
     9     5  2024    46     2     357.4     0.5      0.0    0.0    0.5    0.0      0.1      0.0   -9.90      2.7      2.5     92      0.2      0.2   100      2.9     2.7      92      5.0    0.40      0      0      0      0      0     5.3     5.3     17     0.10      0.2      0.2      0.2   100    19.3     0.126    85.0    0.107    1.067     100        0.11    0.000    0.000     357.4    117.4    0.40   117.4     200.0     120.0      93.4      74.5      49.2      40.0    0.000     0.000     0.000     0.000     0.000    0.40     0.00    0.00      0   -9.90   -9.00       27.4       30.0       30.0       30.0       30.0       30.0       30.0       30.0       30.0       30.0       30.0       30.0        0.0        0.0        0.0        0.0        0.0        0.0        0.0        0.0        0.0        0.0        0.0        0.0      0.5       2.7       4.5       9.0      13.5    423.08
    10     5  2024    47     2     354.7     0.3      0.0    0.0    0.3    0.0      0.0      0.0   -9.90      3.0      2.7     90      0.3      0.3   100      3.3     3.0      91      5.2    0.40      0      0      0      0      0     5.8     5.8     13     0.10      0.3      0.3      0.3   100    19.3     0.143    85.0    0.122    1.215     100        0.12    0.000    0.000     354.7    114.7    0.40   114.7     200.0     120.0      94.4      75.3      49.7      40.0    0.000     0.000     0.000     0.000     0.000    0.40     0.00    0.00      0   -9.90   -9.00       24.7       30.0       30.0       30.0       30.0       30.0       30.0       30.0       30.0       30.0       30.0       30.0        0.0        0.0        0.0        0.0        0.0        0.0        0.0        0.0        0.0        0.0        0.0        0.0      0.3       3.0       4.1       9.2      14.4    423.08
    11     5  2024    48     2     353.0     1.2      0.0    0.0    1.2    0.0      0.0      0.0   -9.90      2.8      2.7     94      0.3      0.3   100      3.1     2.9      94      5.2    0.40      0      0      0      0      0     6.3     6.3     14     0.11      0.3      0.3      0.3   100    19.3     0.162    85.0    0.138    1.376     100        0.13    0.000    0.000     353.0    113.0    0.40   113.0     200.0     120.0      93.9      75.0      49.5      40.0    0.000     0.000     0.000     0.000     0.000    0.40     0.00    0.00      0   -9.90   -9.00       23.0       30.0       30.0       30.0       30.0       30.0       30.0       30.0       30.0       30.0       30.0       30.0        0.0        0.0        0.0        0.0        0.0        0.0        0.0        0.0        0.0        0.0        0.0        0.0      1.2       2.9       4.3       9.2      14.0    423.08
    12     5  2024    49     2     354.6     4.7      0.0    0.0    4.7    0.0      0.0      0.0   -9.90      2.8      2.8    100      0.3      0.3   100      3.1     3.1     100      5.5    0.40      0      0      0      0      0     7.0     7.0     10     0.12      0.3      0.3      0.3   100    19.3     0.184    85.0    0.156    1.561     100        0.14    0.000    0.000     354.6    114.6    0.40   114.6     200.0     120.0      93.8      74.9      49.4      40.0    0.000     0.000     0.000     0.000     0.000    0.40     0.00    0.00      0   -9.90   -9.00       24.6       30.0       30.0       30.0       30.0       30.0       30.0       30.0       30.0       30.0       30.0       30.0        0.0        0.0        0.0        0.0        0.0        0.0        0.0        0.0        0.0        0.0        0.0        0.0      4.7       2.8       5.2       9.5      13.8    423.08
    13     5  2024    50     2     352.6     1.1      0.0    0.0    1.1    0.0      0.0      0.0   -9.90      2.9      2.7     95      0.4      0.4   100      3.3     3.1      95      5.7    0.40      0      0      0      0      0     7.7     7.7      8     0.14      0.4      0.4      0.4   100    19.3     0.208    85.0    0.177    1.769     100        0.16    0.000    0.000     352.6    112.6    0.40   112.6     200.0     120.0      94.3      75.3      49.6      40.0    0.000     0.000     0.000     0.000     0.000    0.40     0.00    0.00      0   -9.90   -9.00       22.6       30.0       30.0       30.0       30.0       30.0       30.0       30.0       30.0       30.0       30.0       30.0        0.0        0.0        0.0        0.0        0.0        0.0        0.0        0.0        0.0        0.0        0.0        0.0      1.1       3.0       6.0       9.7      13.4    423.08
    14     5  2024    51     2     355.0     5.5      0.0    0.0    5.5    0.0      0.0      0.0   -9.90      2.7      2.7    100      0.4      0.4   100      3.1     3.1     100      6.3    0.40      0      0      0      0      0     8.6     8.6      5     0.15      0.4      0.4      0.4   100    19.3     0.236    85.0    0.201    2.008     100        0.17    0.000    0.000     355.0    115.0    0.40   115.0     200.0     120.0      93.8      74.9      49.4      40.0    0.000     0.000     0.000     0.000     0.000    0.40     0.00    0.00      0   -9.90   -9.00       25.0       30.0       30.0       30.0       30.0       30.0       30.0       30.0       30.0       30.0       30.0       30.0        0.0        0.0        0.0        0.0        0.0        0.0        0.0        0.0        0.0        0.0        0.0        0.0      5.5       2.8       6.3      10.3      14.2    423.08
    15     5  2024    52     2     355.1     3.2      0.0    0.0    3.2    0.0      0.0      0.0   -9.90      2.6      2.6    100      0.5      0.5   100      3.1     3.1     100      6.7    0.40      0      0      0      0      0     9.7     9.7      3     0.17      0.5      0.5      0.5   100    19.3     0.269    85.0    0.228    2.282     100        0.19    0.000    0.000     355.1    115.1    0.40   115.1     200.0     120.0      93.9      74.9      49.5      40.0    0.000     0.000     0.000     0.000     0.000    0.40     0.00    0.00      0   -9.90   -9.00       25.1       30.0       30.0       30.0       30.0       30.0       30.0       30.0       30.0       30.0       30.0       30.0        0.0        0.0        0.0        0.0        0.0        0.0        0.0        0.0        0.0        0.0        0.0        0.0      3.2       2.9       6.4      10.7      15.1    423.08
    16     5  2024    53     2     354.4     2.5      0.0    0.0    2.5    0.0      0.0      0.0   -9.90      2.8      2.8    100      0.5      0.5   100      3.3     3.3     100      6.0    0.40      0      0      0      0      0    10.8    10.8      6     0.19      0.5      0.5      0.5   100    19.3     0.303    85.0    0.257    2.574     100        0.21    0.000    0.000     354.4    114.4    0.40   114.4     200.0     120.0      94.4      75.4      49.7      40.0    0.000     0.000     0.000     0.000     0.000    0.40     0.00    0.00      0   -9.90   -9.00       24.4       30.0       30.0       30.0       30.0       30.0       30.0       30.0       30.0       30.0       30.0       30.0        0.0        0.0        0.0        0.0        0.0        0.0        0.0        0.0        0.0        0.0        0.0        0.0      2.5       3.0       5.5      10.0      14.4    423.08
    17     5  2024    54     2     352.8     1.6      0.0    0.0    1.6    0.0      0.0      0.0   -9.90      2.7      2.6     97      0.6      0.6   100      3.3     3.2      98      6.1    0.40      0      0      0      0      0    12.0    12.0      6     0.21      0.6      0.6      0.6   100    19.3     0.341    85.0    0.290    2.898     100        0.23    0.000    0.000     352.8    112.8    0.40   112.8     200.0     120.0      94.4      75.3      49.7      40.0    0.000     0.000     0.000     0.000     0.000    0.40     0.00    0.00      0   -9.90   -9.00       22.8       30.0       30.0       30.0       30.0       30.0       30.0       30.0       30.0       30.0       30.0       30.0        0.0        0.0        0.0        0.0        0.0        0.0        0.0        0.0        0.0        0.0        0.0        0.0      1.6       3.0       5.4      10.1      14.7    423.08
    18     5  2024    55     2     352.8     3.4      0.0    0.0    3.4    0.0      0.0      0.0   -9.90      2.7      2.7    100      0.7      0.7   100      3.4     3.4     100      6.4    0.40      0      0      0      0      0    13.5    13.5      4     0.23      0.7      0.7      0.7   100    19.3     0.384    85.0    0.326    3.264     100        0.26    0.000    0.000     352.8    112.8    0.40   112.8     200.0     120.0      94.6      75.5      49.7      40.0    0.000     0.000     0.000     0.000     0.000    0.40     0.00    0.00      0   -9.90   -9.00       22.8       30.0       30.0       30.0       30.0       30.0       30.0       30.0       30.0       30.0       30.0       30.0        0.0        0.0        0.0        0.0        0.0        0.0        0.0        0.0        0.0        0.0        0.0        0.0      3.4       3.1       6.1      10.4      14.7    423.08
    19     5  2024    56     2     351.0     1.7      0.0    0.0    1.7    0.0      0.0      0.0   -9.90      2.8      2.7     97      0.8      0.8   100      3.6     3.5      97      6.4    0.40      0      0      0      0      0    15.1    15.1      4     0.26      0.8      0.8      0.8   100    19.3     0.432    85.0    0.367    3.670     100        0.28    0.000    0.000     351.0    111.0    0.40   111.0     200.0     120.0      95.3      76.1      50.0      40.0    0.000     0.000     0.000     0.000     0.000    0.40     0.00    0.00      0   -9.90   -9.00       21.0       30.0       30.0       30.0       30.0       30.0       30.0       30.0       30.0       30.0       30.0       30.0        0.0        0.0        0.0        0.0        0.0        0.0        0.0        0.0        0.0        0.0        0.0        0.0      1.7       3.3       5.9      10.4      14.8    423.08
    20     5  2024    57     2     352.4     4.5      0.0    0.0    4.5    0.0      0.0      0.0   -9.90      2.3      2.3    100      0.7      0.7   100      3.0     3.0     100      6.1    0.40      0      0      0      0      0    16.8    16.8      6     0.28      0.7      0.7      0.7   100    19.3     0.484    85.0    0.411    4.111     100        0.31    0.000    0.000     352.4    112.4    0.40   112.4     200.0     120.0      93.7      74.7      49.4      40.0    0.000     0.000     0.000     0.000     0.000    0.40     0.00    0.00      0   -9.90   -9.00       22.4       30.0       30.0       30.0       30.0       30.0       30.0       30.0       30.0       30.0       30.0       30.0        0.0        0.0        0.0        0.0        0.0        0.0        0.0        0.0        0.0        0.0        0.0        0.0      4.5       2.8       5.5      10.1      14.6    423.08
    21     5  2024    58     2     352.6     3.3      0.0    0.0    3.3    0.0      0.0      0.0   -9.90      2.2      2.2    100      0.9      0.9   100      3.1     3.1     100      6.8    0.40      0      0      0      0      0    19.0    19.0      3     0.32      0.9      0.9      0.9   100    19.3     0.543    85.0    0.462    4.619     100        0.34    0.000    0.000     352.6    112.6    0.40   112.6     200.0     120.0      93.9      74.9      49.5      40.0    0.000     0.000     0.000     0.000     0.000    0.40     0.00    0.00      0   -9.90   -9.00       22.6       30.0       30.0       30.0       30.0       30.0       30.0       30.0       30.0       30.0       30.0       30.0        0.0        0.0        0.0        0.0        0.0        0.0        0.0        0.0        0.0        0.0        0.0        0.0      3.3       2.9       6.4      10.8      15.2    423.08
    22     5  2024    59     2     357.1     8.0      0.0    0.0    8.0    0.0      0.0      0.0   -9.90      2.4      2.4    100      1.1      1.1   100      3.5     3.5     100      6.4    0.40      0      0      0      0      0    21.3    21.3      4     0.35      1.1      1.1      1.1   100    19.3     0.609    85.0    0.517    5.174     100        0.37    0.000    0.000     357.1    117.1    0.40   117.1     200.0     120.0      94.9      75.8      49.9      40.0    0.000     0.000     0.000     0.000     0.000    0.40     0.00    0.00      0   -9.90   -9.00       27.1       30.0       30.0       30.0       30.0       30.0       30.0       30.0       30.0       30.0       30.0       30.0        0.0        0.0        0.0        0.0        0.0        0.0        0.0        0.0        0.0        0.0        0.0        0.0      8.0       3.2       5.1      10.4      15.8    423.08
    23     5  2024    60     2     354.6     0.5      0.0    0.0    0.5    0.0      0.0      0.0   -9.90      2.1      2.0     93      1.1      1.1   100      3.3     3.1      96      6.4    0.40      0      0      0      0      0    23.9    23.9      4     0.39      1.1      1.1      1.1   100    19.3     0.680    85.0    0.578    5.783     100        0.40    0.000    0.000     354.6    114.6    0.40   114.6     200.0     120.0      94.4      75.3      49.7      40.0    0.000     0.000     0.000     0.000     0.000    0.40     0.00    0.00      0   -9.90   -9.00       24.6       30.0       30.0       30.0       30.0       30.0       30.0       30.0       30.0       30.0       30.0       30.0        0.0        0.0        0.0        0.0        0.0        0.0        0.0        0.0        0.0        0.0        0.0        0.0      0.5       3.0       5.5      10.4      15.2    423.08
    24     5  2024    61     2     353.4     2.4      0.0    0.0    2.4    0.0      0.0      0.0   -9.90      2.1      2.1    100      1.4      1.4   100      3.5     3.5     100      7.8    0.40      0      0      0      0      0    27.4    27.4      0     0.44      1.4      1.4      1.4   100    19.3     0.765    85.0    0.650    6.500     100        0.44    0.000    0.000     353.4    113.4    0.40   113.4     200.0     120.0      95.0      75.8      49.9      40.0    0.000     0.000     0.000     0.000     0.000    0.40     0.00    0.00      0   -9.90   -9.00       23.4       30.0       30.0       30.0       30.0       30.0       30.0       30.0       30.0       30.0       30.0       30.0        0.0        0.0        0.0        0.0        0.0        0.0        0.0        0.0        0.0        0.0        0.0        0.0      2.4       3.2       7.4      11.8      16.3    423.08
    25     5  2024    62     2     350.9     0.1      0.0    0.0    0.1    0.0      0.0      0.0   -9.90      1.5      1.4     93      1.2      1.2   100      2.7     2.6      96      6.9    0.40      0      0      0      0      0    31.0    31.0      2     0.48      1.2      1.2      1.2   100    19.3     0.856    85.0    0.728    7.277     100        0.48    0.000    0.000     350.9    110.9    0.40   110.9     200.0     120.0      92.9      74.1      49.0      40.0    0.000     0.000     0.000     0.000     0.000    0.40     0.00    0.00      0   -9.90   -9.00       20.9       30.0       30.0       30.0       30.0       30.0       30.0       30.0       30.0       30.0       30.0       30.0        0.0        0.0        0.0        0.0        0.0        0.0        0.0        0.0        0.0        0.0        0.0        0.0      0.1       2.5       7.3      10.9      14.5    423.08
    26     5  2024    63     2     348.7     1.2      0.0    0.0    1.2    0.0      0.0      0.0   -9.90      1.7      1.7     99      1.7      1.7   100      3.4     3.4      99      8.3    0.40      0      0      0      0      0    36.0    36.0      0     0.55      1.7      1.7      1.7   100    19.3     0.961    85.0    0.817    8.172     100        0.53    0.000    0.000     348.7    108.7    0.40   108.7     200.0     120.0      94.7      75.6      49.8      40.0    0.000     0.000     0.000     0.000     0.000    0.40     0.00    0.00      0   -9.90   -9.00       18.7       30.0       30.0       30.0       30.0       30.0       30.0       30.0       30.0       30.0       30.0       30.0        0.0        0.0        0.0        0.0        0.0        0.0        0.0        0.0        0.0        0.0        0.0        0.0      1.2       3.1       7.9      12.3      16.7    423.08
    27     5  2024    64     2     348.7     3.2      0.0    0.0    3.2    0.0      0.0      0.0   -9.90      1.4      1.4    100      1.8      1.8   100      3.2     3.2     100      7.9    0.40      0      0      0      0      0    41.4    41.4      0     0.61      1.8      1.8      1.8   100    19.3     1.079    85.0    0.917    9.172     100        0.59    0.000    0.000     348.7    108.7    0.40   108.7     200.0     120.0      94.0      75.0      49.5      40.0    0.000     0.000     0.000     0.000     0.000    0.40     0.00    0.00      0   -9.90   -9.00       18.7       30.0       30.0       30.0       30.0       30.0       30.0       30.0       30.0       30.0       30.0       30.0        0.0        0.0        0.0        0.0        0.0        0.0        0.0        0.0        0.0        0.0        0.0        0.0      3.2       2.9       8.0      11.9      15.8    423.08
    28     5  2024    65     2     351.6     6.2      0.0    0.0    6.2    0.0      0.0      0.0   -9.90      1.3      1.3    100      2.1      2.1   100      3.3     3.3     100      8.1    0.40      0      0      0      0      0    47.1    47.1      0     0.67      2.1      2.1      2.1   100    19.3     1.209    85.0    1.028   10.276     100        0.64    0.000    0.000     351.6    111.6    0.40   111.6     200.0     120.0      94.5      75.4      49.7      40.0    0.000     0.000     0.000     0.000     0.000    0.40     0.00    0.00      0   -9.90   -9.00       21.6       30.0       30.0       30.0       30.0       30.0       30.0       30.0       30.0       30.0       30.0       30.0        0.0        0.0        0.0        0.0        0.0        0.0        0.0        0.0        0.0        0.0        0.0        0.0      6.2       3.1       7.8      12.1      16.4    423.08
    29     5  2024    66     2     351.6     3.0      0.0    0.0    3.0    0.0      0.0      0.0   -9.90      1.0      1.0    100      2.0      2.0   100      3.0     3.0     100      7.0    0.40      0      0      0      0      0    51.4    51.4      2     0.72      2.0      2.0      2.0   100    19.3     1.344    85.0    1.143   11.428     100        0.70    0.000    0.000     351.6    111.6    0.40   111.6     200.0     120.0      93.7      74.7      49.4      40.0    0.000     0.000     0.000     0.000     0.000    0.40     0.00    0.00      0   -9.90   -9.00       21.6       30.0       30.0       30.0       30.0       30.0       30.0       30.0       30.0       30.0       30.0       30.0        0.0        0.0        0.0        0.0        0.0        0.0        0.0        0.0        0.0        0.0        0.0        0.0      3.0       2.8       7.0      11.0      15.0    423.08
    30     5  2024    67     2     352.1     4.3      0.0    0.0    4.3    0.0      0.0      0.0   -9.90      1.1      1.1    100      2.6      2.6   100      3.7     3.7     100      8.1    0.40      0      0      0      0      0    55.9    55.9      0     0.76      2.6      2.6      2.6   100    19.3     1.491    85.0    1.268   12.676     100        0.76    0.000    0.000     352.1    112.1    0.40   112.1     200.0     120.0      95.6      76.3      50.2      40.0    0.000     0.000     0.000     0.000     0.000    0.40     0.00    0.00      0   -9.90   -9.00       22.1       30.0       30.0       30.0       30.0       30.0       30.0       30.0       30.0       30.0       30.0       30.0        0.0        0.0        0.0        0.0        0.0        0.0        0.0        0.0        0.0        0.0        0.0        0.0      4.3       3.4       7.1      12.1      17.2    423.08
    31     5  2024    68     2     348.7     0.2      0.0    0.0    0.2    0.0      0.0      0.0   -9.90      1.0      1.0     96      2.7      2.7   100      3.8     3.7      99      7.1    0.40      0      0      0      0      0    59.2    59.2      0     0.79      2.7      2.7      2.7   100    19.3     1.644    85.0    1.398   13.976     100        0.82    0.000    0.000     348.7    108.7    0.40   108.7     200.0     120.0      95.6      76.3      50.2      40.0    0.000     0.000     0.000     0.000     0.000    0.40     0.00    0.00      0   -9.90   -9.00       18.7       30.0       30.0       30.0       30.0       30.0       30.0       30.0       30.0       30.0       30.0       30.0        0.0        0.0        0.0        0.0        0.0        0.0        0.0        0.0        0.0        0.0        0.0        0.0      0.2       3.4       6.8      11.1      15.4    423.08
     1     6  2024    69     2     345.2     0.5      0.0    0.0    0.5    0.0      0.0      0.0   -9.90      1.0      0.8     84      3.1      3.1   100      4.1     3.9      96      8.2    0.40      0      0      0      0      0    62.6    62.6      0     0.82      3.1      3.1      3.1   100    19.3     1.803    85.0    1.533   15.327     100        0.88    0.000    0.000     345.2    105.2    0.40   105.2     200.0     120.0      96.4      77.0      50.5      40.0    0.000     0.000     0.000     0.000     0.000    0.40     0.00    0.00      0   -9.90   -9.00       15.2       30.0       30.0       30.0       30.0       30.0       30.0       30.0       30.0       30.0       30.0       30.0        0.0        0.0        0.0        0.0        0.0        0.0        0.0        0.0        0.0        0.0        0.0        0.0      0.5       3.7       7.3      12.2      17.1    423.08
     2     6  2024    70     2     346.5     4.3      0.0    0.0    4.3    0.0      0.0      0.0   -9.90      0.7      0.7    100      2.4      2.4   100      3.0     3.0     100      7.1    0.40      0      0      0      0      0    65.2    65.2      0     0.84      2.4      2.4      2.4   100    19.3     1.966    85.0    1.671   16.715     100        0.94    0.000    0.000     346.5    106.5    0.40   106.5     200.0     120.0      93.7      74.8      49.4      40.0    0.000     0.000     0.000     0.000     0.000    0.40     0.00    0.00      0   -9.90   -9.00       16.5       30.0       30.0       30.0       30.0       30.0       30.0       30.0       30.0       30.0       30.0       30.0        0.0        0.0        0.0        0.0        0.0        0.0        0.0        0.0        0.0        0.0        0.0        0.0      4.3       2.8       7.2      11.1      15.1    423.08
     3     6  2024    71     2     350.2     6.4      0.0    0.0    6.4    0.0      0.0      0.0   -9.90      0.5      0.5    100      2.1      2.1   100      2.6     2.6     100      7.9    0.40      0      0      0      0      0    67.7    67.7      0     0.87      2.1      2.1      2.1   100    19.3     2.134    85.0    1.814   18.138     100        1.01    0.000    0.000     350.2    110.2    0.40   110.2     200.0     120.0      92.7      73.9      49.0      40.0    0.000     0.000     0.000     0.000     0.000    0.40     0.00    0.00      0   -9.90   -9.00       20.2       30.0       30.0       30.0       30.0       30.0       30.0       30.0       30.0       30.0       30.0       30.0        0.0        0.0        0.0        0.0        0.0        0.0        0.0        0.0        0.0        0.0        0.0        0.0      6.4       2.4       8.8      11.9      15.0    423.08
     4     6  2024    72     2     358.1    10.9      0.0    0.0   10.8    0.1      0.0      0.0   -9.90      0.5      0.5    100      2.4      2.4   100      2.9     2.9     100      8.4    0.40      0      0      0      0      0    70.0    70.0      0     0.89      2.4      2.4      2.4   100    19.3     2.305    85.0    1.959   19.592     100        1.07    0.000    0.000     358.1    118.1    0.40   118.1     200.0     120.0      93.4      74.5      49.2      40.0    0.000     0.000     0.000     0.000     0.000    0.40     0.00    0.00      0   -9.90   -9.00       28.1       30.0       30.0       30.0       30.0       30.0       30.0       30.0       30.0       30.0       30.0       30.0        0.0        0.0        0.0        0.0        0.0        0.0        0.0        0.0        0.0        0.0        0.0        0.0     10.9       2.7       8.6      12.4      16.1    423.08
     5     6  2024    73     2     356.6     2.5      0.0    0.0    2.5    0.0      0.0      0.0   -9.90      0.7      0.7    100      3.3      3.3   100      4.0     4.0     100      9.2    0.40      0      0      0      0      0    72.1    72.1      0     0.90      3.3      3.3      3.3   100    19.3     2.479    85.0    2.107   21.075     100        1.13    0.000    0.000     356.6    116.6    0.40   116.6     200.0     120.0      96.3      76.9      50.5      40.0    0.000     0.000     0.000     0.000     0.000    0.40     0.00    0.00      0   -9.90   -9.00       26.6       30.0       30.0       30.0       30.0       30.0       30.0       30.0       30.0       30.0       30.0       30.0        0.0        0.0        0.0        0.0        0.0        0.0        0.0        0.0        0.0        0.0        0.0        0.0      2.5       3.7       8.2      13.2      18.1    423.08
     6     6  2024    74     2     354.2     1.4      0.0    0.0    1.4    0.0      0.0      0.0   -9.90      0.6      0.6    100      3.2      3.2   100      3.8     3.8     100      9.6    0.40      0      0      0      0      0    74.0    74.0      0     0.92      3.2      3.2      3.2   100    19.3     2.657    85.0    2.258   22.582     100        1.18    0.000    0.000     354.2    114.2    0.40   114.2     200.0     120.0      95.6      76.3      50.2      40.0    0.000     0.000     0.000     0.000     0.000    0.40     0.00    0.00      0   -9.90   -9.00       24.2       30.0       30.0       30.0       30.0       30.0       30.0       30.0       30.0       30.0       30.0       30.0        0.0        0.0        0.0        0.0        0.0        0.0        0.0        0.0        0.0        0.0        0.0        0.0      1.4       3.5       9.3      13.6      17.9    423.08
     7     6  2024    75     2     358.5     7.7      0.0    0.0    7.6    0.1      0.0      0.0   -9.90      0.5      0.5    100      2.8      2.8   100      3.3     3.3     100      9.3    0.40      0      0      0      0      0    75.6    75.6      0     0.93      2.8      2.8      2.8   100    19.3     2.837    85.0    2.411   24.110     100        1.24    0.000    0.000     358.5    118.5    0.40   118.5     200.0     120.0      94.4      75.3      49.6      40.0    0.000     0.000     0.000     0.000     0.000    0.40     0.00    0.00      0   -9.90   -9.00       28.5       30.0       30.0       30.0       30.0       30.0       30.0       30.0       30.0       30.0       30.0       30.0        0.0        0.0        0.0        0.0        0.0        0.0        0.0        0.0        0.0        0.0        0.0        0.0      7.7       3.0       9.4      13.3      17.2    423.08
     8     6  2024    76     2     360.2     5.1      0.0    0.0    5.0    0.0      0.0      0.0   -9.90      0.5      0.5    100      2.9      2.9   100      3.4     3.4     100      9.6    0.40      0      0      0      0      0    76.9    76.9      0     0.94      2.9      2.9      2.9   100    19.3     3.018    85.0    2.566   25.656     100        1.30    0.000    0.000     360.2    120.2    0.40   120.2     200.0     120.0      94.6      75.5      49.7      40.0    0.000     0.000     0.000     0.000     0.000    0.40     0.00    0.00      0   -9.90   -9.00       30.2       30.0       30.0       30.0       30.0       30.0       30.0       30.0       30.0       30.0       30.0       30.0        0.0        0.0        0.0        0.0        0.0        0.0        0.0        0.0        0.0        0.0        0.0        0.0      5.1       3.1       9.4      13.6      17.9    423.08
     9     6  2024    77     2     357.9     1.6      0.0    0.0    1.6    0.0      0.0      0.0   -9.90      0.5      0.5    100      3.3      3.3   100      3.8     3.8     100      9.3    0.40      0      0      0      0      0    78.1    78.1      0     0.95      3.3      3.3      3.3   100    19.3     3.202    85.0    2.722   27.215     100        1.35    0.000    0.000     357.9    117.9    0.40   117.9     200.0     120.0      95.7      76.4      50.2      40.0    0.000     0.000     0.000     0.000     0.000    0.40     0.00    0.00      0   -9.90   -9.00       27.9       30.0       30.0       30.0       30.0       30.0       30.0       30.0       30.0       30.0       30.0       30.0        0.0        0.0        0.0        0.0        0.0        0.0        0.0        0.0        0.0        0.0        0.0        0.0      1.6       3.5       8.8      13.3      17.9    423.08
    10     6  2024    78     2     357.2     3.2      0.0    0.0    3.2    0.0      0.0      0.0   -9.90      0.5      0.5    100      3.5      3.5   100      3.9     3.9     100     10.0    0.40      0      0      0      0      0    79.0    79.0      0     0.96      3.5      3.5      3.5   100    19.3     3.387    85.0    2.879   28.787     100        1.40    0.000    0.000     357.2    117.2    0.40   117.2     200.0     120.0      96.1      76.7      50.4      40.0    0.000     0.000     0.000     0.000     0.000    0.40     0.00    0.00      0   -9.90   -9.00       27.2       30.0       30.0       30.0       30.0       30.0       30.0       30.0       30.0       30.0       30.0       30.0        0.0        0.0        0.0        0.0        0.0        0.0        0.0        0.0        0.0        0.0        0.0        0.0      3.2       3.6       9.4      14.0      18.5    423.08
    11     6  2024    79     2     357.5     4.1      0.0    0.0    4.1    0.0      0.0      0.0   -9.90      0.4      0.4    100      3.3      3.3   100      3.7     3.7     100      9.9    0.40      0      0      0      0      0    79.9    79.9      0     0.96      3.3      3.3      3.3   100    19.3     3.573    85.0    3.037   30.369     100        1.45    0.000    0.000     357.5    117.5    0.40   117.5     200.0     120.0      95.5      76.3      50.1      40.0    0.000     0.000     0.000     0.000     0.000    0.40     0.00    0.00      0   -9.90   -9.00       27.5       30.0       30.0       30.0       30.0       30.0       30.0       30.0       30.0       30.0       30.0       30.0        0.0        0.0        0.0        0.0        0.0        0.0        0.0        0.0        0.0        0.0        0.0        0.0      4.1       3.4       9.7      13.9      18.2    423.08
    12     6  2024    80     2     355.3     1.5      0.0    0.0    1.5    0.0      0.0      0.0   -9.90      0.4      0.4    100      3.3      3.3   100      3.7     3.7     100      9.8    0.40      0      0      0      0      0    80.6    80.6      0     0.97      3.3      3.3      3.3   100    19.3     3.760    85.0    3.196   31.960     100        1.50    0.000    0.000     355.3    115.3    0.40   115.3     200.0     120.0      95.5      76.2      50.1      40.0    0.000     0.000     0.000     0.000     0.000    0.40     0.00    0.00      0   -9.90   -9.00       25.3       30.0       30.0       30.0       30.0       30.0       30.0       30.0       30.0       30.0       30.0       30.0        0.0        0.0        0.0        0.0        0.0        0.0        0.0        0.0        0.0        0.0        0.0        0.0      1.5       3.4      10.0      13.8      17.6    423.08
    13     6  2024    81     2     352.9     1.5      0.0    0.0    1.5    0.0      0.0      0.0   -9.90      0.4      0.4    100      3.4      3.4   100      3.8     3.8     100      9.5    0.40      0      0      0      0      0    81.1    81.1      0     0.97      3.4      3.4      3.4   100    19.3     3.948    85.0    3.356   33.557     100        1.55    0.000    0.000     352.9    112.9    0.40   112.9     200.0     120.0      95.9      76.5      50.3      40.0    0.000     0.000     0.000     0.000     0.000    0.40     0.00    0.00      0   -9.90   -9.00       22.9       30.0       30.0       30.0       30.0       30.0       30.0       30.0       30.0       30.0       30.0       30.0        0.0        0.0        0.0        0.0        0.0        0.0        0.0        0.0        0.0        0.0        0.0        0.0      1.5       3.5       9.4      13.5      17.7    423.08
    14     6  2024    82     2     355.3     6.3      0.0    0.0    6.3    0.0      0.0      0.0   -9.90      0.4      0.4    100      3.5      3.5   100      3.9     3.9     100     10.4    0.40      0      0      0      0      0    81.6    81.6      0     0.98      3.5      3.5      3.5   100    19.3     4.137    85.0    3.516   35.161     100        1.60    0.000    0.000     355.3    115.3    0.40   115.3     200.0     120.0      96.1      76.7      50.4      40.0    0.000     0.000     0.000     0.000     0.000    0.40     0.00    0.00      0   -9.90   -9.00       25.3       30.0       30.0       30.0       30.0       30.0       30.0       30.0       30.0       30.0       30.0       30.0        0.0        0.0        0.0        0.0        0.0        0.0        0.0        0.0        0.0        0.0        0.0        0.0      6.3       3.6       9.8      14.4      19.1    423.08
    15     6  2024    83     2     356.6     5.3      0.0    0.0    5.3    0.0      0.0      0.0   -9.90      0.4      0.4    100      3.6      3.6   100      4.0     4.0     100     10.2    0.40      0      0      0      0      0    82.0    82.0      0     0.98      3.6      3.6      3.6   100    19.3     4.326    85.0    3.677   36.769     100        1.64    0.000    0.000     356.6    116.6    0.40   116.6     200.0     120.0      96.2      76.8      50.4      40.0    0.000     0.000     0.000     0.000     0.000    0.40     0.00    0.00      0   -9.90   -9.00       26.6       30.0       30.0       30.0       30.0       30.0       30.0       30.0       30.0       30.0       30.0       30.0        0.0        0.0        0.0        0.0        0.0        0.0        0.0        0.0        0.0        0.0        0.0        0.0      5.3       3.7       9.8      14.2      18.6    423.08
    16     6  2024    84     2     356.4     3.3      0.0    0.0    3.3    0.0      0.0      0.0   -9.90      0.3      0.3    100      3.2      3.2   100      3.5     3.5     100     10.1    0.40      0      0      0      0      0    82.3    82.3      0     0.98      3.2      3.2      3.2   100    19.3     4.515    85.0    3.838   38.381     100        1.68    0.000    0.000     356.4    116.4    0.40   116.4     200.0     120.0      95.0      75.8      49.9      40.0    0.000     0.000     0.000     0.000     0.000    0.40     0.00    0.00      0   -9.90   -9.00       26.4       30.0       30.0       30.0       30.0       30.0       30.0       30.0       30.0       30.0       30.0       30.0        0.0        0.0        0.0        0.0        0.0        0.0        0.0        0.0        0.0        0.0        0.0        0.0      3.3       3.2       9.8      14.1      18.4    423.08
    17     6  2024    85     2     354.3     2.1      0.0    0.0    2.1    0.0      0.0      0.0   -9.90      0.4      0.4    100      3.9      3.9   100      4.3     4.3     100     10.1    0.40      0      0      0      0      0    82.6    82.6      0     0.98      3.9      3.9      3.9   100    19.3     4.706    85.0    4.000   39.997     100        1.72    0.000    0.000     354.3    114.3    0.40   114.3     200.0     120.0      96.9      77.5      50.7      40.0    0.000     0.000     0.000     0.000     0.000    0.40     0.00    0.00      0   -9.90   -9.00       24.3       30.0       30.0       30.0       30.0       30.0       30.0       30.0       30.0       30.0       30.0       30.0        0.0        0.0        0.0        0.0        0.0        0.0        0.0        0.0        0.0        0.0        0.0        0.0      2.1       3.9       9.6      14.1      18.6    423.08
    18     6  2024    86     2     355.6     4.6      0.0    0.0    4.6    0.0      0.0      0.0   -9.90      0.3      0.3    100      3.0      3.0   100      3.3     3.3     100     10.4    0.40      0      0      0      0      0    82.8    82.8      0     0.98      3.0      3.0      3.0   100    19.3     4.896    85.0    4.162   41.615     100        1.77    0.000    0.000     355.6    115.6    0.40   115.6     200.0     120.0      94.4      75.4      49.7      40.0    0.000     0.000     0.000     0.000     0.000    0.40     0.00    0.00      0   -9.90   -9.00       25.6       30.0       30.0       30.0       30.0       30.0       30.0       30.0       30.0       30.0       30.0       30.0        0.0        0.0        0.0        0.0        0.0        0.0        0.0        0.0        0.0        0.0        0.0        0.0      4.6       3.0      10.7      14.4      18.1    423.08
    19     6  2024    87     2     353.6     2.1      0.0    0.0    2.1    0.0      0.0      0.0   -9.90      0.4      0.4    100      3.7      3.7   100      4.1     4.1     100     10.8    0.40      0      0      0      0      0    83.0    83.0      0     0.99      3.7      3.7      3.7   100    19.3     5.086    85.0    4.324   43.235     100        1.81    0.000    0.000     353.6    113.6    0.40   113.6     200.0     120.0      96.5      77.0      50.5      40.0    0.000     0.000     0.000     0.000     0.000    0.40     0.00    0.00      0   -9.90   -9.00       23.6       30.0       30.0       30.0       30.0       30.0       30.0       30.0       30.0       30.0       30.0       30.0        0.0        0.0        0.0        0.0        0.0        0.0        0.0        0.0        0.0        0.0        0.0        0.0      2.1       3.8      10.3      14.8      19.1    423.08
[...]
    26     2  2025    -9     0     363.0     1.9      0.0    0.0    1.9    0.0      1.8      0.0   -9.90      1.2      1.2    100      0.0      0.0   100      1.2     1.2     100      0.0    0.40      0     -9      0      0     -9     0.0     0.0      0    -9.00      0.0      0.0      0.0   100    19.3     5.277    85.0    4.486   44.856     100        1.84    0.000    0.000     363.0    122.2    0.40   122.2     200.0     120.0      97.7      70.8      51.1      40.0    0.000     0.000     0.000     0.000     0.000    0.40     0.00    0.00      0   -9.90   -9.00       31.2       30.5       30.3       30.2       30.1       30.1       30.1       30.1       30.1       30.1       30.1       30.1        0.0        0.0        0.0        0.0        0.0        0.0        0.0        0.0        0.0        0.0        0.0        0.0      1.9       1.1      -5.1      -0.5       4.1    423.08
    27     2  2025    -9     0     364.1     3.3      0.0    0.0    3.3    0.0      1.2      0.0   -9.90      1.0      1.0    100      0.0      0.0   100      1.0     1.0     100      0.0    0.40      0     -9      0      0     -9     0.0     0.0      0    -9.00      0.0      0.0      0.0   100    19.3     5.277    85.0    4.486   44.856     100        1.84    0.000    0.000     364.1    123.5    0.40   123.5     200.0     120.0      97.7      70.2      51.1      40.0    0.000     0.000     0.000     0.000     0.000    0.40     0.00    0.00      0   -9.90   -9.00       32.7       30.4       30.2       30.2       30.1       30.1       30.1       30.1       30.1       30.1       30.1       30.1        0.0        0.0        0.0        0.0        0.0        0.0        0.0        0.0        0.0        0.0        0.0        0.0      3.3       0.9      -3.2      -0.2       2.9    423.08
    28     2  2025    -9     0     369.2     8.0      0.0    0.0    7.5    0.4      1.3      0.0   -9.90      1.1      1.1    100      0.0      0.0   100      1.1     1.1     100      0.0    0.40      0     -9      0      0     -9     0.0     0.0      0    -9.00      0.0      0.0      0.0   100    19.3     5.277    85.0    4.486   44.856     100        1.84    0.000    0.000     369.2    128.4    0.40   128.4     200.0     120.0      97.7      70.6      51.1      40.0    0.000     0.000     0.000     0.000     0.000    0.40     0.00    0.00      0   -9.90   -9.00       37.2       30.7       30.4       30.2       30.2       30.1       30.1       30.1       30.1       30.1       30.1       30.1        0.0        0.0        0.0        0.0        0.0        0.0        0.0        0.0        0.0        0.0        0.0        0.0      8.0       1.0      -5.0      -0.5       4.0    423.08
     1     3  2025    -9     0     368.5     2.8      0.0    0.0    2.8    0.0      2.5      0.0   -9.90      1.0      1.0    100      0.0      0.0   100      1.0     1.0     100      0.0    0.40      0     -9      0      0     -9     0.0     0.0      0    -9.00      0.0      0.0      0.0   100    19.3     5.277    85.0    4.486   44.856     100        1.84    0.000    0.000     368.5    126.7    0.40   126.7     200.0     120.0      97.7      70.3      51.1      40.0    0.000     0.000     0.000     0.000     0.000    0.40     0.00    0.00      0   -9.90   -9.00       33.1       31.7       31.2       30.7       30.4       30.3       30.2       30.2       30.2       30.1       30.1       30.1        0.0        0.0        0.0        0.0        0.0        0.0        0.0        0.0        0.0        0.0        0.0        0.0      2.8       0.9      -5.4      -2.0       1.4    423.08
     2     3  2025    -9     0     368.3     4.3      0.0    0.0    4.3    0.0      3.5      0.0   -9.90      1.0      1.0    100      0.0      0.0   100      1.0     1.0     100      0.0    0.40      0     -9      0      0     -9     0.0     0.0      0    -9.00      0.0      0.0      0.0   100    19.3     5.277    85.0    4.486   44.856     100        1.84    0.000    0.000     368.3    126.3    0.40   126.3     200.0     120.0      97.7      70.3      51.1      40.0    0.000     0.000     0.000     0.000     0.000    0.40     0.00    0.00      0   -9.90   -9.00       34.2       30.9       30.6       30.5       30.4       30.3       30.3       30.2       30.2       30.2       30.2       30.1        0.0        0.0        0.0        0.0        0.0        0.0        0.0        0.0        0.0        0.0        0.0        0.0      4.3       0.9      -5.2      -1.7       1.8    423.08
     3     3  2025    -9     0     370.5     6.8      0.0    0.0    6.5    0.3      3.2      0.0   -9.90      1.0      1.0    100      0.0      0.0   100      1.0     1.0     100      0.0    0.40      0     -9      0      0     -9     0.0     0.0      0    -9.00      0.0      0.0      0.0   100    19.3     5.277    85.0    4.486   44.856     100        1.84    0.000    0.000     370.5    128.9    0.40   128.9     200.0     120.0      97.7      70.3      51.1      40.0    0.000     0.000     0.000     0.000     0.000    0.40     0.00    0.00      0   -9.90   -9.00       36.7       31.2       30.6       30.4       30.3       30.3       30.2       30.2       30.2       30.2       30.1       30.1        0.0        0.0        0.0        0.0        0.0        0.0        0.0        0.0        0.0        0.0        0.0        0.0      6.8       0.9      -5.1      -1.9       1.3    423.08
     4     3  2025    -9     0     366.1     0.2      0.0    0.0    0.2    0.0      3.5      0.0   -9.90      1.2      1.1     96      0.0      0.0   100      1.2     1.1      96      0.0    0.40      0     -9      0      0     -9     0.0     0.0      0    -9.00      0.0      0.0      0.0   100    19.3     5.277    85.0    4.486   44.856     100        1.84    0.000    0.000     366.1    124.1    0.40   124.1     200.0     120.0      97.7      70.7      51.1      40.0    0.000     0.000     0.000     0.000     0.000    0.40     0.00    0.00      0   -9.90   -9.00       30.8       31.7       30.9       30.6       30.4       30.3       30.3       30.2       30.2       30.2       30.2       30.2        0.0        0.0        0.0        0.0        0.0        0.0        0.0        0.0        0.0        0.0        0.0        0.0      0.2       1.1      -4.9      -1.4       2.1    423.08
     5     3  2025    -9     0     363.4     1.5      0.0    0.0    1.5    0.0      3.1      0.0   -9.90      1.1      1.1    100      0.0      0.0   100      1.1     1.1     100      0.0    0.40      0     -9      0      0     -9     0.0     0.0      0    -9.00      0.0      0.0      0.0   100    19.3     5.277    85.0    4.486   44.856     100        1.84    0.000    0.000     363.4    121.9    0.40   121.9     200.0     120.0      97.7      70.5      51.1      40.0    0.000     0.000     0.000     0.000     0.000    0.40     0.00    0.00      0   -9.90   -9.00       30.6       30.5       30.4       30.3       30.3       30.2       30.2       30.2       30.2       30.2       30.1       30.1        0.0        0.0        0.0        0.0        0.0        0.0        0.0        0.0        0.0        0.0        0.0        0.0      1.5       1.0      -4.4      -0.8       2.9    423.08
     6     3  2025    -9     0     365.0     4.6      0.0    0.0    4.6    0.1      1.9      0.0   -9.90      1.1      1.1    100      0.0      0.0   100      1.1     1.1     100      0.0    0.40      0     -9      0      0     -9     0.0     0.0      0    -9.00      0.0      0.0      0.0   100    19.3     5.277    85.0    4.486   44.856     100        1.84    0.000    0.000     365.0    124.2    0.40   124.2     200.0     120.0      97.7      70.4      51.1      40.0    0.000     0.000     0.000     0.000     0.000    0.40     0.00    0.00      0   -9.90   -9.00       33.7       30.2       30.2       30.2       30.1       30.1       30.1       30.1       30.1       30.1       30.1       30.1        0.0        0.0        0.0        0.0        0.0        0.0        0.0        0.0        0.0        0.0        0.0        0.0      4.6       1.0      -2.3       0.8       3.9    423.08
     7     3  2025    -9     0     368.3     6.4      0.0    0.0    6.2    0.2      1.6      0.0   -9.90      1.4      1.4    100      0.0      0.0   100      1.4     1.4     100      0.0    0.40      0     -9      0      0     -9     0.0     0.0      0    -9.00      0.0      0.0      0.0   100    19.3     5.277    85.0    4.486   44.856     100        1.84    0.000    0.000     368.3    127.5    0.40   127.5     200.0     120.0      97.7      71.1      51.1      40.0    0.000     0.000     0.000     0.000     0.000    0.40     0.00    0.00      0   -9.90   -9.00       35.9       30.8       30.4       30.3       30.2       30.1       30.1       30.1       30.1       30.1       30.1       30.1        0.0        0.0        0.0        0.0        0.0        0.0        0.0        0.0        0.0        0.0        0.0        0.0      6.4       1.2      -3.1       1.1       5.3    423.08
     8     3  2025    -9     0     367.4     2.9      0.0    0.0    2.9    0.0      2.4      0.0   -9.90      1.3      1.3    100      0.0      0.0   100      1.3     1.3     100      0.0    0.40      0     -9      0      0     -9     0.0     0.0      0    -9.00      0.0      0.0      0.0   100    19.3     5.277    85.0    4.486   44.856     100        1.84    0.000    0.000     367.4    125.8    0.40   125.8     200.0     120.0      97.7      71.0      51.1      40.0    0.000     0.000     0.000     0.000     0.000    0.40     0.00    0.00      0   -9.90   -9.00       32.8       31.5       30.8       30.7       30.4       30.3       30.2       30.2       30.2       30.1       30.1       30.1        0.0        0.0        0.0        0.0        0.0        0.0        0.0        0.0        0.0        0.0        0.0        0.0      2.9       1.2      -2.7       1.4       5.5    423.08
     9     3  2025    -9     0     364.5     1.4      0.0    0.0    1.4    0.0      3.2      0.0   -9.90      1.2      1.2    100      0.0      0.0   100      1.2     1.2     100      0.0    0.40      0     -9      0      0     -9     0.0     0.0      0    -9.00      0.0      0.0      0.0   100    19.3     5.277    85.0    4.486   44.856     100        1.84    0.000    0.000     364.5    122.7    0.40   122.7     200.0     120.0      97.7      70.8      51.1      40.0    0.000     0.000     0.000     0.000     0.000    0.40     0.00    0.00      0   -9.90   -9.00       30.8       30.8       30.6       30.4       30.3       30.3       30.3       30.2       30.2       30.2       30.2       30.1        0.0        0.0        0.0        0.0        0.0        0.0        0.0        0.0        0.0        0.0        0.0        0.0      1.4       1.1      -4.7      -0.8       3.1    423.08
    10     3  2025    -9     0     363.7     3.0      0.0    0.0    3.0    0.0      2.4      0.0   -9.90      1.4      1.4    100      0.0      0.0   100      1.4     1.4     100      0.0    0.40      0     -9      0      0     -9     0.0     0.0      0    -9.00      0.0      0.0      0.0   100    19.3     5.277    85.0    4.486   44.856     100        1.84    0.000    0.000     363.7    122.7    0.40   122.7     200.0     120.0      97.7      71.1      51.1      40.0    0.000     0.000     0.000     0.000     0.000    0.40     0.00    0.00      0   -9.90   -9.00       31.9       30.3       30.3       30.2       30.2       30.2       30.1       30.1       30.1       30.1       30.1       30.1        0.0        0.0        0.0        0.0        0.0        0.0        0.0        0.0        0.0        0.0        0.0        0.0      3.0       1.2      -4.0       0.1       4.3    423.08
    11     3  2025    -9     0     368.0     7.5      0.0    0.0    7.1    0.4      1.5      0.0   -9.90      1.3      1.3    100      0.0      0.0   100      1.3     1.3     100      0.0    0.40      0     -9      0      0     -9     0.0     0.0      0    -9.00      0.0      0.0      0.0   100    19.3     5.277    85.0    4.486   44.856     100        1.84    0.000    0.000     368.0    127.3    0.40   127.3     200.0     120.0      97.7      71.0      51.1      40.0    0.000     0.000     0.000     0.000     0.000    0.40     0.00    0.00      0   -9.90   -9.00       36.4       30.5       30.2       30.2       30.1       30.1       30.1       30.1       30.1       30.1       30.1       30.1        0.0        0.0        0.0        0.0        0.0        0.0        0.0        0.0        0.0        0.0        0.0        0.0      7.5       1.2      -2.6       1.2       5.0    423.08
    12     3  2025    -9     0     370.0     5.6      0.0    0.0    5.4    0.1      2.1      0.0   -9.90      1.3      1.3    100      0.0      0.0   100      1.3     1.3     100      0.0    0.40      0     -9      0      0     -9     0.0     0.0      0    -9.00      0.0      0.0      0.0   100    19.3     5.277    85.0    4.486   44.856     100        1.84    0.000    0.000     370.0    128.7    0.40   128.7     200.0     120.0      97.7      71.0      51.1      40.0    0.000     0.000     0.000     0.000     0.000    0.40     0.00    0.00      0   -9.90   -9.00       36.0       31.5       30.8       30.4       30.3       30.2       30.2       30.2       30.1       30.1       30.1       30.1        0.0        0.0        0.0        0.0        0.0        0.0        0.0        0.0        0.0        0.0        0.0        0.0      5.6       1.2      -2.5       1.2       5.0    423.08
    13     3  2025    -9     0     370.8     5.4      0.0    0.0    5.3    0.1      3.2      0.0   -9.90      1.2      1.2    100      0.0      0.0   100      1.2     1.2     100      0.0    0.40      0     -9      0      0     -9     0.0     0.0      0    -9.00      0.0      0.0      0.0   100    19.3     5.277    85.0    4.486   44.856     100        1.84    0.000    0.000     370.8    128.9    0.40   128.9     200.0     120.0      97.7      70.8      51.1      40.0    0.000     0.000     0.000     0.000     0.000    0.40     0.00    0.00      0   -9.90   -9.00       35.8       31.7       30.9       30.6       30.4       30.3       30.3       30.2       30.2       30.2       30.1       30.1        0.0        0.0        0.0        0.0        0.0        0.0        0.0        0.0        0.0        0.0        0.0        0.0      5.4       1.1      -1.9       1.2       4.4    423.08
    14     3  2025    -9     0     369.7     4.0      0.0    0.0    4.0    0.0      3.8      0.0   -9.90      1.3      1.3    100      0.0      0.0   100      1.3     1.3     100      0.0    0.40      0     -9      0      0     -9     0.0     0.0      0    -9.00      0.0      0.0      0.0   100    19.3     5.277    85.0    4.486   44.856     100        1.84    0.000    0.000     369.7    127.6    0.40   127.6     200.0     120.0      97.7      70.9      51.1      40.0    0.000     0.000     0.000     0.000     0.000    0.40     0.00    0.00      0   -9.90   -9.00       34.4       31.7       30.9       30.6       30.5       30.4       30.3       30.3       30.2       30.2       30.2       30.2        0.0        0.0        0.0        0.0        0.0        0.0        0.0        0.0        0.0        0.0        0.0        0.0      4.0       1.2      -2.8       0.6       4.0    423.08
    15     3  2025    -9     0     367.6     2.8      0.0    0.0    2.8    0.0      3.9      0.0   -9.90      1.0      1.0    100      0.0      0.0   100      1.0     1.0     100      0.0    0.40      0     -9      0      0     -9     0.0     0.0      0    -9.00      0.0      0.0      0.0   100    19.3     5.277    85.0    4.486   44.856     100        1.84    0.000    0.000     367.6    125.6    0.40   125.6     200.0     120.0      97.7      70.3      51.1      40.0    0.000     0.000     0.000     0.000     0.000    0.40     0.00    0.00      0   -9.90   -9.00       33.0       31.3       30.8       30.5       30.4       30.3       30.3       30.2       30.2       30.2       30.2       30.2        0.0        0.0        0.0        0.0        0.0        0.0        0.0        0.0        0.0        0.0        0.0        0.0      2.8       0.9      -4.2      -1.8       0.5    423.08
    16     3  2025    -9     0     363.4     0.6      0.0    0.0    0.6    0.0      3.3      0.0   -9.90      1.5      1.5     97      0.0      0.0   100      1.5     1.5      97      0.0    0.40      0     -9      0      0     -9     0.0     0.0      0    -9.00      0.0      0.0      0.0   100    19.3     5.277    85.0    4.486   44.856     100        1.84    0.000    0.000     363.4    121.6    0.40   121.6     200.0     120.0      97.7      71.4      51.1      40.0    0.000     0.000     0.000     0.000     0.000    0.40     0.00    0.00      0   -9.90   -9.00       29.4       30.9       30.9       30.4       30.4       30.3       30.3       30.2       30.2       30.2       30.2       30.1        0.0        0.0        0.0        0.0        0.0        0.0        0.0        0.0        0.0        0.0        0.0        0.0      0.6       1.4      -3.7       0.2       4.0    423.08
    17     3  2025    -9     0     362.6     2.6      0.0    0.0    2.6    0.0      2.3      0.0   -9.90      1.2      1.2    100      0.0      0.0   100      1.2     1.2     100      0.0    0.40      0     -9      0      0     -9     0.0     0.0      0    -9.00      0.0      0.0      0.0   100    19.3     5.277    85.0    4.486   44.856     100        1.84    0.000    0.000     362.6    121.6    0.40   121.6     200.0     120.0      97.7      70.8      51.1      40.0    0.000     0.000     0.000     0.000     0.000    0.40     0.00    0.00      0   -9.90   -9.00       30.8       30.3       30.3       30.2       30.2       30.2       30.1       30.1       30.1       30.1       30.1       30.1        0.0        0.0        0.0        0.0        0.0        0.0        0.0        0.0        0.0        0.0        0.0        0.0      2.6       1.1      -2.2       0.7       3.6    423.08
    18     3  2025    -9     0     363.4     3.5      0.0    0.0    3.5    0.0      1.3      0.0   -9.90      1.4      1.4    100      0.0      0.0   100      1.4     1.4     100      0.0    0.40      0     -9      0      0     -9     0.0     0.0      0    -9.00      0.0      0.0      0.0   100    19.3     5.277    85.0    4.486   44.856     100        1.84    0.000    0.000     363.4    122.9    0.40   122.9     200.0     120.0      97.7      71.2      51.1      40.0    0.000     0.000     0.000     0.000     0.000    0.40     0.00    0.00      0   -9.90   -9.00       32.4       30.3       30.1       30.1       30.1       30.1       30.1       30.1       30.1       30.1       30.1       30.1        0.0        0.0        0.0        0.0        0.0        0.0        0.0        0.0        0.0        0.0        0.0        0.0      3.5       1.3      -2.7       0.6       3.9    423.08
    19     3  2025    -9     0     362.5     1.7      0.0    0.0    1.7    0.0      1.1      0.0   -9.90      1.5      1.5    100      0.0      0.0   100      1.5     1.5     100      0.0    0.40      0     -9      0      0     -9     0.0     0.0      0    -9.00      0.0      0.0      0.0   100    19.3     5.277    85.0    4.486   44.856     100        1.84    0.000    0.000     362.5    121.9    0.40   121.9     200.0     120.0      97.7      71.4      51.1      40.0    0.000     0.000     0.000     0.000     0.000    0.40     0.00    0.00      0   -9.90   -9.00       30.9       30.6       30.3       30.2       30.1       30.1       30.1       30.1       30.1       30.1       30.0       30.0        0.0        0.0        0.0        0.0        0.0        0.0        0.0        0.0        0.0        0.0        0.0        0.0      1.7       1.4      -2.5       1.3       5.0    423.08
