AquaCrop 7.2 (August 2024) - Output created on (date) : 12-12-2024   at (time) : 20:11:40
Biomass and Yield at Multiple cuttings

   Run:   1
    Nr   Day  Month Year   DAP Interval  Biomass    Sum(B)   Dry-Yield  Sum(Y) Fresh-Yield  Sum(Y)
                                 days     ton/ha    ton/ha    ton/ha    ton/ha    ton/ha    ton/ha
     0    30    12  2024                             0.000               0.000               0.000
  9999    24     3  2025                             0.000               0.000               0.000
