AquaCrop 7.2 (August 2024) - Output created on (date) : 06-12-2024   at (time) : 15:44:05

   Run:   1
   Day Month  Year   DAP Stage   WC(1.20)   Rain     Irri   Surf   Infilt   RO    Drain       CR    Zgwt       Ex       E     E/Ex     Trx       Tr  Tr/Trx    ETx      ET  ET/ETx      GD       Z     StExp  StSto  StSen StSalt StWeed   CC      CCw     StTr  Kc(Tr)     Trx       Tr      TrW  Tr/Trx   WP    Biomass     HI    Y(dry)  Y(fresh)  Brelative    WPet      Bin     Bout  WC(1.20) Wr(0.40)     Z       Wr    Wr(SAT)    Wr(FC)   Wr(exp)   Wr(sto)   Wr(sen)   Wr(PWP)    SaltIn    SaltOut   SaltUp   Salt(1.20)  SaltZ     Z       ECe    ECsw   StSalt  Zgwt    ECgw       WC01       WC 2       WC 3       WC 4       WC 5       WC 6       WC 7       WC 8       WC 9       WC10       WC11       WC12      ECe01      ECe 2      ECe 3      ECe 4      ECe 5      ECe 6      ECe 7      ECe 8      ECe 9      ECe10      ECe11      ECe12     Rain       ETo      Tmin      Tavg      Tmax      CO2
                                      mm      mm       mm     mm     mm     mm       mm       mm      m        mm       mm     %        mm       mm    %        mm      mm       %  degC-day     m       %      %      %      %      %      %       %       %       -        mm       mm       mm    %     g/m2    ton/ha      %    ton/ha   ton/ha       %       kg/m3   ton/ha   ton/ha      mm       mm       m       mm        mm        mm        mm        mm        mm         mm    ton/ha    ton/ha    ton/ha    ton/ha    ton/ha     m      dS/m    dS/m      %     m      dS/m       0.05       0.15       0.25       0.35       0.45       0.55       0.65       0.75       0.85       0.95       1.05       1.15       0.05       0.15       0.25       0.35       0.45       0.55       0.65       0.75       0.85       0.95       1.05       1.15       mm        mm     degC      degC      degC       ppm
    30    12  2024     1     1     365.7     7.1      0.0    0.0    6.8    0.3      0.0      0.0   -9.90      1.1      1.1    100      0.0      0.0   100      1.1     1.1     100      0.9    0.00     -9     -9     -9     -9     -9     0.0     0.0      0    -9.00      0.0      0.0      0.0   100     0.0     0.000    -9.9    0.000    0.000      -9        0.00    0.000    0.000     365.7     -9.9    0.00    -9.9      -9.9      -9.9      -9.9      -9.9      -9.9      -9.9    0.000     0.000     0.000     0.000    -9.000    0.00    -9.00   -9.00      0   -9.90   -9.00       35.7       30.0       30.0       30.0       30.0       30.0       30.0       30.0       30.0       30.0       30.0       30.0        0.0        0.0        0.0        0.0        0.0        0.0        0.0        0.0        0.0        0.0        0.0        0.0      7.1       1.0      -0.2       4.9       9.9    423.08
    31    12  2024     2     1     364.9     1.3      0.0    0.0    1.3    0.0      1.1      0.0   -9.90      1.0      1.0    100      0.0      0.0   100      1.0     1.0     100      0.6    0.00     -9     -9     -9     -9     -9     0.0     0.0      0    -9.00      0.0      0.0      0.0   100     0.0     0.000    -9.9    0.000    0.000      -9        0.00    0.000    0.000     364.9     -9.9    0.00    -9.9      -9.9      -9.9      -9.9      -9.9      -9.9      -9.9    0.000     0.000     0.000     0.000    -9.000    0.00    -9.00   -9.00      0   -9.90   -9.00       30.9       31.6       31.0       30.4       30.3       30.2       30.1       30.1       30.1       30.1       30.1       30.1        0.0        0.0        0.0        0.0        0.0        0.0        0.0        0.0        0.0        0.0        0.0        0.0      1.3       0.9       0.1       4.6       9.2    423.08
     1     1  2025     3     1     362.2     0.0      0.0    0.0    0.0    0.0      2.1      0.0   -9.90      0.5      0.5     99      0.0      0.0   100      0.5     0.5      99      0.0    0.00     -9     -9     -9     -9     -9     0.0     0.0      0    -9.00      0.0      0.0      0.0   100     0.0     0.000    -9.9    0.000    0.000      -9        0.00    0.000    0.000     362.2     -9.9    0.00    -9.9      -9.9      -9.9      -9.9      -9.9      -9.9      -9.9    0.000     0.000     0.000     0.000    -9.000    0.00    -9.00   -9.00      0   -9.90   -9.00       29.8       30.5       30.4       30.3       30.3       30.2       30.2       30.2       30.1       30.1       30.1       30.1        0.0        0.0        0.0        0.0        0.0        0.0        0.0        0.0        0.0        0.0        0.0        0.0      0.0       0.5      -6.2      -3.1       0.0    423.08
     2     1  2025     4     1     360.2     0.0      0.0    0.0    0.0    0.0      1.5      0.0   -9.90      0.6      0.6     92      0.0      0.0   100      0.6     0.6      92      0.0    0.00     -9     -9     -9     -9     -9     0.0     0.0      0    -9.00      0.0      0.0      0.0   100     0.0     0.000    -9.9    0.000    0.000      -9        0.00    0.000    0.000     360.2     -9.9    0.00    -9.9      -9.9      -9.9      -9.9      -9.9      -9.9      -9.9    0.000     0.000     0.000     0.000    -9.000    0.00    -9.00   -9.00      0   -9.90   -9.00       29.2       30.2       30.1       30.1       30.1       30.1       30.1       30.1       30.1       30.1       30.1       30.1        0.0        0.0        0.0        0.0        0.0        0.0        0.0        0.0        0.0        0.0        0.0        0.0      0.0       0.6      -8.8      -4.2       0.3    423.08
     3     1  2025     5     1     361.7     3.1      0.0    0.0    3.1    0.0      0.7      0.0   -9.90      0.9      0.9    100      0.0      0.0   100      0.9     0.9     100      1.0    0.00     -9     -9      0     -9     -9     0.0     0.0      0    -9.00      0.0      0.0      0.0   100     0.0     0.000    -9.9    0.000    0.000      -9        0.00    0.000    0.000     361.7     -9.9    0.00    -9.9      -9.9      -9.9      -9.9      -9.9      -9.9      -9.9    0.000     0.000     0.000     0.000    -9.000    0.00    -9.00   -9.00      0   -9.90   -9.00       31.3       30.0       30.0       30.0       30.0       30.0       30.0       30.0       30.0       30.0       30.0       30.0        0.0        0.0        0.0        0.0        0.0        0.0        0.0        0.0        0.0        0.0        0.0        0.0      3.1       0.9       0.3       5.0       9.6    423.08
     4     1  2025    -9     0     372.2    13.7      0.0    0.0   11.9    1.8      0.5      0.0   -9.90      0.9      0.9    100      0.0      0.0   100      0.9     0.9     100      1.3    0.00     -9     -9      0     -9     -9     1.0     0.0     93    -9.00      0.0      0.0      0.0   100     0.0     0.000    -9.9    0.000    0.000      -9        0.00    0.000    0.000     372.2     -9.9    0.00    -9.9      -9.9      -9.9      -9.9      -9.9      -9.9      -9.9    0.000     0.000     0.000     0.000    -9.000    0.00    -9.00   -9.00      0   -9.90   -9.00       41.4       30.3       30.1       30.1       30.1       30.0       30.0       30.0       30.0       30.0       30.0       30.0        0.0        0.0        0.0        0.0        0.0        0.0        0.0        0.0        0.0        0.0        0.0        0.0     13.7       0.8       0.6       5.3      10.1    423.08
     5     1  2025    -9     0     383.3    17.4      0.0    0.0   14.4    3.0      2.7      0.0   -9.90      0.5      0.5    100      0.0      0.0   100      0.5     0.5     100      0.0    0.00     -9     -9      0     -9     -9     1.0     0.0    100    -9.00      0.0      0.0      0.0   100     0.0     0.000    -9.9    0.000    0.000      -9        0.00    0.000    0.000     383.3     -9.9    0.00    -9.9      -9.9      -9.9      -9.9      -9.9      -9.9      -9.9    0.000     0.000     0.000     0.000    -9.000    0.00    -9.00   -9.00      0   -9.90   -9.00       47.0       32.4       31.3       30.7       30.5       30.4       30.3       30.2       30.2       30.2       30.1       30.1        0.0        0.0        0.0        0.0        0.0        0.0        0.0        0.0        0.0        0.0        0.0        0.0     17.4       0.5      -2.7      -0.6       1.5    423.08
     6     1  2025    -9     0     375.8     0.0      0.0    0.0    0.0    0.0      7.0      0.0   -9.90      0.5      0.5    100      0.0      0.0   100      0.5     0.5     100      0.0    0.00     -9     -9      0     -9     -9     1.0     0.0    100    -9.00      0.0      0.0      0.0   100     0.0     0.000    -9.9    0.000    0.000      -9        0.00    0.000    0.000     375.8     -9.9    0.00    -9.9      -9.9      -9.9      -9.9      -9.9      -9.9      -9.9    0.000     0.000     0.000     0.000    -9.000    0.00    -9.00   -9.00      0   -9.90   -9.00       33.8       33.9       32.2       31.4       31.0       30.8       30.6       30.5       30.4       30.4       30.3       30.3        0.0        0.0        0.0        0.0        0.0        0.0        0.0        0.0        0.0        0.0        0.0        0.0      0.0       0.5     -10.7      -6.5      -2.4    423.08
     7     1  2025    -9     0     370.9     4.1      0.0    0.0    4.1    0.0      7.5      0.0   -9.90      1.5      1.5    100      0.0      0.0   100      1.5     1.5     100      0.0    0.00     -9     -9      0     -9     -9     1.0     0.0    100    -9.00      0.0      0.0      0.0   100     0.0     0.000    -9.9    0.000    0.000      -9        0.00    0.000    0.000     370.9     -9.9    0.00    -9.9      -9.9      -9.9      -9.9      -9.9      -9.9      -9.9    0.000     0.000     0.000     0.000    -9.000    0.00    -9.00   -9.00      0   -9.90   -9.00       33.7       31.2       31.2       30.9       30.8       30.6       30.5       30.5       30.4       30.4       30.3       30.3        0.0        0.0        0.0        0.0        0.0        0.0        0.0        0.0        0.0        0.0        0.0        0.0      4.1       1.3     -11.1      -1.8       7.6    423.08
     8     1  2025    -9     0     364.7     0.2      0.0    0.0    0.2    0.0      5.4      0.0   -9.90      1.1      1.0     96      0.0      0.0   100      1.1     1.0      96      0.0    0.00     -9     -9      0     -9     -9     1.0     0.0    100    -9.00      0.0      0.0      0.0   100     0.0     0.000    -9.9    0.000    0.000      -9        0.00    0.000    0.000     364.7     -9.9    0.00    -9.9      -9.9      -9.9      -9.9      -9.9      -9.9      -9.9    0.000     0.000     0.000     0.000    -9.000    0.00    -9.00   -9.00      0   -9.90   -9.00       30.1       31.1       30.6       30.5       30.4       30.4       30.3       30.3       30.3       30.3       30.2       30.2        0.0        0.0        0.0        0.0        0.0        0.0        0.0        0.0        0.0        0.0        0.0        0.0      0.2       1.0      -7.8      -0.7       6.4    423.08
     9     1  2025    -9     0     366.0     4.6      0.0    0.0    4.5    0.1      2.8      0.0   -9.90      0.4      0.4    100      0.0      0.0   100      0.4     0.4     100      0.0    0.00     -9     -9      0     -9     -9     1.0     0.0    100    -9.00      0.0      0.0      0.0   100     0.0     0.000    -9.9    0.000    0.000      -9        0.00    0.000    0.000     366.0     -9.9    0.00    -9.9      -9.9      -9.9      -9.9      -9.9      -9.9      -9.9    0.000     0.000     0.000     0.000    -9.000    0.00    -9.00   -9.00      0   -9.90   -9.00       34.2       30.3       30.2       30.2       30.2       30.2       30.1       30.1       30.1       30.1       30.1       30.1        0.0        0.0        0.0        0.0        0.0        0.0        0.0        0.0        0.0        0.0        0.0        0.0      4.6       0.3     -13.8     -10.8      -7.8    423.08
    10     1  2025    -9     0     366.4     3.5      0.0    0.0    3.5    0.0      2.0      0.0   -9.90      1.1      1.1    100      0.0      0.0   100      1.1     1.1     100      0.0    0.00     -9     -9      0     -9     -9     1.0     0.0    100    -9.00      0.0      0.0      0.0   100     0.0     0.000    -9.9    0.000    0.000      -9        0.00    0.000    0.000     366.4     -9.9    0.00    -9.9      -9.9      -9.9      -9.9      -9.9      -9.9      -9.9    0.000     0.000     0.000     0.000    -9.000    0.00    -9.00   -9.00      0   -9.90   -9.00       33.6       31.0       30.5       30.3       30.2       30.2       30.1       30.1       30.1       30.1       30.1       30.1        0.0        0.0        0.0        0.0        0.0        0.0        0.0        0.0        0.0        0.0        0.0        0.0      3.5       1.0     -12.4      -4.3       3.8    423.08
    11     1  2025    -9     0     363.8     0.0      0.0    0.0    0.0    0.0      2.1      0.0   -9.90      0.4      0.4    100      0.0      0.0   100      0.4     0.4     100      0.0    0.00     -9     -9      0     -9     -9     1.0     0.0    100    -9.00      0.0      0.0      0.0   100     0.0     0.000    -9.9    0.000    0.000      -9        0.00    0.000    0.000     363.8     -9.9    0.00    -9.9      -9.9      -9.9      -9.9      -9.9      -9.9      -9.9    0.000     0.000     0.000     0.000    -9.000    0.00    -9.00   -9.00      0   -9.90   -9.00       30.6       31.1       30.5       30.4       30.3       30.2       30.2       30.1       30.1       30.1       30.1       30.1        0.0        0.0        0.0        0.0        0.0        0.0        0.0        0.0        0.0        0.0        0.0        0.0      0.0       0.4      -1.1       0.4       2.0    423.08
    12     1  2025    -9     0     381.3    28.5      0.0    0.0   20.4    8.1      1.9      0.0   -9.90      0.9      0.9    100      0.0      0.0   100      0.9     0.9     100      0.0    0.00     -9     -9      0     -9     -9     1.0     0.0    100    -9.00      0.0      0.0      0.0   100     0.0     0.000    -9.9    0.000    0.000      -9        0.00    0.000    0.000     381.3     -9.9    0.00    -9.9      -9.9      -9.9      -9.9      -9.9      -9.9      -9.9    0.000     0.000     0.000     0.000    -9.000    0.00    -9.00   -9.00      0   -9.90   -9.00       49.1       30.8       30.3       30.2       30.2       30.2       30.1       30.1       30.1       30.1       30.1       30.1        0.0        0.0        0.0        0.0        0.0        0.0        0.0        0.0        0.0        0.0        0.0        0.0     28.5       0.9      -7.3      -1.8       3.7    423.08
    13     1  2025    -9     0     381.2     6.1      0.0    0.0    5.9    0.2      5.7      0.0   -9.90      0.3      0.3    100      0.0      0.0   100      0.3     0.3     100      0.0    0.00     -9     -9      0     -9     -9     1.0     0.0    100    -9.00      0.0      0.0      0.0   100     0.0     0.000    -9.9    0.000    0.000      -9        0.00    0.000    0.000     381.2     -9.9    0.00    -9.9      -9.9      -9.9      -9.9      -9.9      -9.9      -9.9    0.000     0.000     0.000     0.000    -9.000    0.00    -9.00   -9.00      0   -9.90   -9.00       37.9       33.9       33.3       31.8       31.1       30.8       30.6       30.5       30.4       30.3       30.3       30.3        0.0        0.0        0.0        0.0        0.0        0.0        0.0        0.0        0.0        0.0        0.0        0.0      6.1       0.3     -12.4      -9.8      -7.3    423.08
    14     1  2025    -9     0     373.3     1.6      0.0    0.0    1.6    0.0      9.2      0.0   -9.90      0.4      0.4    100      0.0      0.0   100      0.4     0.4     100      0.0    0.00     -9     -9      0     -9     -9     1.0     0.0    100    -9.00      0.0      0.0      0.0   100     0.0     0.000    -9.9    0.000    0.000      -9        0.00    0.000    0.000     373.3     -9.9    0.00    -9.9      -9.9      -9.9      -9.9      -9.9      -9.9      -9.9    0.000     0.000     0.000     0.000    -9.000    0.00    -9.00   -9.00      0   -9.90   -9.00       31.9       32.3       32.2       31.3       31.2       31.0       30.8       30.7       30.6       30.5       30.4       30.4        0.0        0.0        0.0        0.0        0.0        0.0        0.0        0.0        0.0        0.0        0.0        0.0      1.6       0.3     -12.7      -9.7      -6.7    423.08
    15     1  2025    -9     0     379.8    19.2      0.0    0.0   15.5    3.7      7.4      0.0   -9.90      1.6      1.6    100      0.0      0.0   100      1.6     1.6     100      0.0    0.00     -9     -9      0     -9     -9     1.0     0.0    100    -9.00      0.0      0.0      0.0   100     0.0     0.000    -9.9    0.000    0.000      -9        0.00    0.000    0.000     379.8     -9.9    0.00    -9.9      -9.9      -9.9      -9.9      -9.9      -9.9      -9.9    0.000     0.000     0.000     0.000    -9.000    0.00    -9.00   -9.00      0   -9.90   -9.00       44.5       30.7       30.7       30.7       30.6       30.5       30.5       30.4       30.4       30.3       30.3       30.3        0.0        0.0        0.0        0.0        0.0        0.0        0.0        0.0        0.0        0.0        0.0        0.0     19.2       1.4     -12.0      -1.9       8.2    423.08
    16     1  2025    -9     0     374.8     2.9      0.0    0.0    2.9    0.0      6.8      0.0   -9.90      1.1      1.1    100      0.0      0.0   100      1.1     1.1     100      0.0    0.00     -9     -9      0     -9     -9     1.0     0.0    100    -9.00      0.0      0.0      0.0   100     0.0     0.000    -9.9    0.000    0.000      -9        0.00    0.000    0.000     374.8     -9.9    0.00    -9.9      -9.9      -9.9      -9.9      -9.9      -9.9      -9.9    0.000     0.000     0.000     0.000    -9.000    0.00    -9.00   -9.00      0   -9.90   -9.00       33.0       33.6       32.9       31.2       31.0       30.7       30.6       30.5       30.4       30.4       30.3       30.3        0.0        0.0        0.0        0.0        0.0        0.0        0.0        0.0        0.0        0.0        0.0        0.0      2.9       1.0      -8.9      -2.1       4.8    423.08
    17     1  2025    -9     0     366.5     0.0      0.0    0.0    0.0    0.0      7.1      0.0   -9.90      1.2      1.2    100      0.0      0.0   100      1.2     1.2     100      0.0    0.00     -9     -9      0     -9     -9     1.0     0.0    100    -9.00      0.0      0.0      0.0   100     0.0     0.000    -9.9    0.000    0.000      -9        0.00    0.000    0.000     366.5     -9.9    0.00    -9.9      -9.9      -9.9      -9.9      -9.9      -9.9      -9.9    0.000     0.000     0.000     0.000    -9.000    0.00    -9.00   -9.00      0   -9.90   -9.00       29.7       31.1       31.0       30.9       30.7       30.6       30.5       30.5       30.4       30.4       30.3       30.3        0.0        0.0        0.0        0.0        0.0        0.0        0.0        0.0        0.0        0.0        0.0        0.0      0.0       1.1      -9.1      -1.3       6.5    423.08
    18     1  2025    -9     0     365.1     4.1      0.0    0.0    4.1    0.0      4.2      0.0   -9.90      1.2      1.2    100      0.0      0.0   100      1.2     1.2     100      0.0    0.00     -9     -9      0     -9     -9     1.0     0.0    100    -9.00      0.0      0.0      0.0   100     0.0     0.000    -9.9    0.000    0.000      -9        0.00    0.000    0.000     365.1     -9.9    0.00    -9.9      -9.9      -9.9      -9.9      -9.9      -9.9      -9.9    0.000     0.000     0.000     0.000    -9.000    0.00    -9.00   -9.00      0   -9.90   -9.00       32.6       30.3       30.3       30.3       30.2       30.2       30.2       30.2       30.2       30.2       30.2       30.2        0.0        0.0        0.0        0.0        0.0        0.0        0.0        0.0        0.0        0.0        0.0        0.0      4.1       1.1      -7.9      -0.9       6.1    423.08
    19     1  2025    -9     0     362.5     0.0      0.0    0.0    0.0    0.0      2.2      0.0   -9.90      0.4      0.4    100      0.0      0.0   100      0.4     0.4     100      0.0    0.00     -9     -9      0     -9     -9     1.0     0.0    100    -9.00      0.0      0.0      0.0   100     0.0     0.000    -9.9    0.000    0.000      -9        0.00    0.000    0.000     362.5     -9.9    0.00    -9.9      -9.9      -9.9      -9.9      -9.9      -9.9      -9.9    0.000     0.000     0.000     0.000    -9.000    0.00    -9.00   -9.00      0   -9.90   -9.00       30.4       30.6       30.3       30.2       30.2       30.1       30.1       30.1       30.1       30.1       30.1       30.1        0.0        0.0        0.0        0.0        0.0        0.0        0.0        0.0        0.0        0.0        0.0        0.0      0.0       0.3     -14.6     -11.2      -7.9    423.08
    20     1  2025    -9     0     360.7     0.0      0.0    0.0    0.0    0.0      1.3      0.0   -9.90      0.5      0.5    100      0.0      0.0   100      0.5     0.5     100      0.0    0.00     -9     -9      0     -9     -9     1.0     0.0    100    -9.00      0.0      0.0      0.0   100     0.0     0.000    -9.9    0.000    0.000      -9        0.00    0.000    0.000     360.7     -9.9    0.00    -9.9      -9.9      -9.9      -9.9      -9.9      -9.9      -9.9    0.000     0.000     0.000     0.000    -9.000    0.00    -9.00   -9.00      0   -9.90   -9.00       29.6       30.2       30.2       30.1       30.1       30.1       30.1       30.1       30.1       30.1       30.1       30.1        0.0        0.0        0.0        0.0        0.0        0.0        0.0        0.0        0.0        0.0        0.0        0.0      0.0       0.5     -14.2     -10.0      -5.8    423.08
    21     1  2025    -9     0     361.8     2.5      0.0    0.0    2.5    0.0      0.7      0.0   -9.90      0.8      0.8    100      0.0      0.0   100      0.8     0.8     100      0.0    0.00     -9     -9      0     -9     -9     1.0     0.0    100    -9.00      0.0      0.0      0.0   100     0.0     0.000    -9.9    0.000    0.000      -9        0.00    0.000    0.000     361.8     -9.9    0.00    -9.9      -9.9      -9.9      -9.9      -9.9      -9.9      -9.9    0.000     0.000     0.000     0.000    -9.000    0.00    -9.00   -9.00      0   -9.90   -9.00       31.4       30.1       30.1       30.0       30.0       30.0       30.0       30.0       30.0       30.0       30.0       30.0        0.0        0.0        0.0        0.0        0.0        0.0        0.0        0.0        0.0        0.0        0.0        0.0      2.5       0.7      -6.6      -2.1       2.3    423.08
    22     1  2025    -9     0     360.8     0.2      0.0    0.0    0.2    0.0      0.5      0.0   -9.90      0.6      0.6     99      0.0      0.0   100      0.6     0.6      99      0.0    0.00     -9     -9      0     -9     -9     1.0     0.0    100    -9.00      0.0      0.0      0.0   100     0.0     0.000    -9.9    0.000    0.000      -9        0.00    0.000    0.000     360.8     -9.9    0.00    -9.9      -9.9      -9.9      -9.9      -9.9      -9.9      -9.9    0.000     0.000     0.000     0.000    -9.000    0.00    -9.00   -9.00      0   -9.90   -9.00       29.8       30.3       30.3       30.1       30.1       30.1       30.0       30.0       30.0       30.0       30.0       30.0        0.0        0.0        0.0        0.0        0.0        0.0        0.0        0.0        0.0        0.0        0.0        0.0      0.2       0.6      -9.0      -5.0      -0.9    423.08
    23     1  2025    -9     0     364.4     5.0      0.0    0.0    4.9    0.1      0.5      0.0   -9.90      0.8      0.8    100      0.0      0.0   100      0.8     0.8     100      0.0    0.00     -9     -9      0     -9     -9     1.0     0.0    100    -9.00      0.0      0.0      0.0   100     0.0     0.000    -9.9    0.000    0.000      -9        0.00    0.000    0.000     364.4     -9.9    0.00    -9.9      -9.9      -9.9      -9.9      -9.9      -9.9      -9.9    0.000     0.000     0.000     0.000    -9.000    0.00    -9.00   -9.00      0   -9.90   -9.00       33.9       30.1       30.1       30.1       30.1       30.0       30.0       30.0       30.0       30.0       30.0       30.0        0.0        0.0        0.0        0.0        0.0        0.0        0.0        0.0        0.0        0.0        0.0        0.0      5.0       0.8      -6.3      -1.6       3.1    423.08
    24     1  2025    -9     0     364.7     2.0      0.0    0.0    2.0    0.0      1.1      0.0   -9.90      0.6      0.6    100      0.0      0.0   100      0.6     0.6     100      0.0    0.00     -9     -9      0     -9     -9     1.0     0.0    100    -9.00      0.0      0.0      0.0   100     0.0     0.000    -9.9    0.000    0.000      -9        0.00    0.000    0.000     364.7     -9.9    0.00    -9.9      -9.9      -9.9      -9.9      -9.9      -9.9      -9.9    0.000     0.000     0.000     0.000    -9.000    0.00    -9.00   -9.00      0   -9.90   -9.00       32.3       30.9       30.4       30.4       30.2       30.2       30.1       30.1       30.1       30.1       30.1       30.0        0.0        0.0        0.0        0.0        0.0        0.0        0.0        0.0        0.0        0.0        0.0        0.0      2.0       0.6     -11.8      -7.3      -2.8    423.08
    25     1  2025    -9     0     362.3     0.0      0.0    0.0    0.0    0.0      1.7      0.0   -9.90      0.7      0.7    100      0.0      0.0   100      0.7     0.7     100      0.0    0.00     -9     -9      0     -9     -9     1.0     0.0    100    -9.00      0.0      0.0      0.0   100     0.0     0.000    -9.9    0.000    0.000      -9        0.00    0.000    0.000     362.3     -9.9    0.00    -9.9      -9.9      -9.9      -9.9      -9.9      -9.9      -9.9    0.000     0.000     0.000     0.000    -9.000    0.00    -9.00   -9.00      0   -9.90   -9.00       30.0       30.7       30.4       30.3       30.2       30.2       30.1       30.1       30.1       30.1       30.1       30.1        0.0        0.0        0.0        0.0        0.0        0.0        0.0        0.0        0.0        0.0        0.0        0.0      0.0       0.7     -13.6      -7.7      -1.8    423.08
    26     1  2025    -9     0     362.4     1.9      0.0    0.0    1.9    0.0      1.3      0.0   -9.90      0.6      0.6    100      0.0      0.0   100      0.6     0.6     100      0.0    0.00     -9     -9      0     -9     -9     1.0     0.0    100    -9.00      0.0      0.0      0.0   100     0.0     0.000    -9.9    0.000    0.000      -9        0.00    0.000    0.000     362.4     -9.9    0.00    -9.9      -9.9      -9.9      -9.9      -9.9      -9.9      -9.9    0.000     0.000     0.000     0.000    -9.000    0.00    -9.00   -9.00      0   -9.90   -9.00       31.3       30.2       30.1       30.1       30.1       30.1       30.1       30.1       30.1       30.1       30.1       30.1        0.0        0.0        0.0        0.0        0.0        0.0        0.0        0.0        0.0        0.0        0.0        0.0      1.9       0.5      -2.0       0.0       2.0    423.08
    27     1  2025    -9     0     374.9    17.2      0.0    0.0   14.2    3.0      0.9      0.0   -9.90      0.8      0.8    100      0.0      0.0   100      0.8     0.8     100      0.0    0.00     -9     -9      0     -9     -9     1.0     0.0    100    -9.00      0.0      0.0      0.0   100     0.0     0.000    -9.9    0.000    0.000      -9        0.00    0.000    0.000     374.9     -9.9    0.00    -9.9      -9.9      -9.9      -9.9      -9.9      -9.9      -9.9    0.000     0.000     0.000     0.000    -9.000    0.00    -9.00   -9.00      0   -9.90   -9.00       43.9       30.3       30.2       30.1       30.1       30.1       30.1       30.1       30.0       30.0       30.0       30.0        0.0        0.0        0.0        0.0        0.0        0.0        0.0        0.0        0.0        0.0        0.0        0.0     17.2       0.7      -4.2      -0.5       3.2    423.08
    28     1  2025    -9     0     372.7     2.2      0.0    0.0    2.2    0.0      3.6      0.0   -9.90      0.9      0.9    100      0.0      0.0   100      0.9     0.9     100      0.0    0.00     -9     -9      0     -9     -9     1.0     0.0    100    -9.00      0.0      0.0      0.0   100     0.0     0.000    -9.9    0.000    0.000      -9        0.00    0.000    0.000     372.7     -9.9    0.00    -9.9      -9.9      -9.9      -9.9      -9.9      -9.9      -9.9    0.000     0.000     0.000     0.000    -9.000    0.00    -9.00   -9.00      0   -9.90   -9.00       32.8       33.2       32.8       31.1       30.8       30.5       30.4       30.3       30.3       30.2       30.2       30.2        0.0        0.0        0.0        0.0        0.0        0.0        0.0        0.0        0.0        0.0        0.0        0.0      2.2       0.8      -7.0      -1.9       3.1    423.08
    29     1  2025    -9     0     366.6     0.4      0.0    0.0    0.4    0.0      6.0      0.0   -9.90      0.5      0.5    100      0.0      0.0   100      0.5     0.5     100      0.0    0.00     -9     -9      0     -9     -9     1.0     0.0    100    -9.00      0.0      0.0      0.0   100     0.0     0.000    -9.9    0.000    0.000      -9        0.00    0.000    0.000     366.6     -9.9    0.00    -9.9      -9.9      -9.9      -9.9      -9.9      -9.9      -9.9    0.000     0.000     0.000     0.000    -9.000    0.00    -9.00   -9.00      0   -9.90   -9.00       30.4       31.0       30.9       30.9       30.7       30.6       30.6       30.4       30.4       30.3       30.3       30.3        0.0        0.0        0.0        0.0        0.0        0.0        0.0        0.0        0.0        0.0        0.0        0.0      0.4       0.4      -8.9      -6.4      -3.9    423.08
    30     1  2025    -9     0     362.0     0.0      0.0    0.0    0.0    0.0      4.0      0.0   -9.90      0.7      0.6     92      0.0      0.0   100      0.7     0.6      92      0.0    0.00     -9     -9      0     -9     -9     1.0     0.0    100    -9.00      0.0      0.0      0.0   100     0.0     0.000    -9.9    0.000    0.000      -9        0.00    0.000    0.000     362.0     -9.9    0.00    -9.9      -9.9      -9.9      -9.9      -9.9      -9.9      -9.9    0.000     0.000     0.000     0.000    -9.000    0.00    -9.00   -9.00      0   -9.90   -9.00       29.5       30.3       30.3       30.3       30.2       30.2       30.2       30.2       30.2       30.2       30.2       30.2        0.0        0.0        0.0        0.0        0.0        0.0        0.0        0.0        0.0        0.0        0.0        0.0      0.0       0.6     -12.8      -7.9      -2.9    423.08
    31     1  2025    -9     0     359.2     0.0      0.0    0.0    0.0    0.0      1.7      0.0   -9.90      1.3      1.1     83      0.0      0.0   100      1.3     1.1      83      0.0    0.00     -9     -9      0     -9     -9     1.0     0.0    100    -9.00      0.0      0.0      0.0   100     0.0     0.000    -9.9    0.000    0.000      -9        0.00    0.000    0.000     359.2     -9.9    0.00    -9.9      -9.9      -9.9      -9.9      -9.9      -9.9      -9.9    0.000     0.000     0.000     0.000    -9.000    0.00    -9.00   -9.00      0   -9.90   -9.00       28.4       30.1       30.1       30.1       30.1       30.1       30.1       30.1       30.1       30.1       30.1       30.1        0.0        0.0        0.0        0.0        0.0        0.0        0.0        0.0        0.0        0.0        0.0        0.0      0.0       1.2     -13.6      -4.3       5.0    423.08
     1     2  2025    -9     0     365.4     7.7      0.0    0.0    7.4    0.3      0.6      0.0   -9.90      0.7      0.7    100      0.0      0.0   100      0.7     0.7     100      1.7    0.00     -9     -9      0     -9     -9     1.1     0.0     90    -9.00      0.0      0.0      0.0   100     0.0     0.000    -9.9    0.000    0.000      -9        0.00    0.000    0.000     365.4     -9.9    0.00    -9.9      -9.9      -9.9      -9.9      -9.9      -9.9      -9.9    0.000     0.000     0.000     0.000    -9.000    0.00    -9.00   -9.00      0   -9.90   -9.00       35.1       30.0       30.0       30.0       30.0       30.0       30.0       30.0       30.0       30.0       30.0       30.0        0.0        0.0        0.0        0.0        0.0        0.0        0.0        0.0        0.0        0.0        0.0        0.0      7.7       0.6       3.9       5.7       7.4    423.08
     2     2  2025    -9     0     388.9    41.9      0.0    0.0   25.8   16.1      1.1      0.0   -9.90      1.2      1.2    100      0.0      0.0   100      1.2     1.2     100      0.0    0.00     -9     -9      0     -9     -9     1.1     0.0    100    -9.00      0.0      0.0      0.0   100     0.0     0.000    -9.9    0.000    0.000      -9        0.00    0.000    0.000     388.9     -9.9    0.00    -9.9      -9.9      -9.9      -9.9      -9.9      -9.9      -9.9    0.000     0.000     0.000     0.000    -9.000    0.00    -9.00   -9.00      0   -9.90   -9.00       48.8       38.4       30.6       30.3       30.2       30.1       30.1       30.1       30.1       30.1       30.1       30.0        0.0        0.0        0.0        0.0        0.0        0.0        0.0        0.0        0.0        0.0        0.0        0.0     41.9       1.1      -1.2       3.8       8.8    423.08
     3     2  2025    -9     0     379.7     0.2      0.0    0.0    0.2    0.0      8.7      0.0   -9.90      0.7      0.7     99      0.0      0.0   100      0.7     0.7      99      0.0    0.00     -9     -9      0     -9     -9     1.1     0.0    100    -9.00      0.0      0.0      0.0   100     0.0     0.000    -9.9    0.000    0.000      -9        0.00    0.000    0.000     379.7     -9.9    0.00    -9.9      -9.9      -9.9      -9.9      -9.9      -9.9      -9.9    0.000     0.000     0.000     0.000    -9.000    0.00    -9.00   -9.00      0   -9.90   -9.00       33.9       34.6       33.3       32.1       31.4       31.1       30.8       30.7       30.6       30.5       30.4       30.4        0.0        0.0        0.0        0.0        0.0        0.0        0.0        0.0        0.0        0.0        0.0        0.0      0.2       0.6      -9.7      -5.4      -1.2    423.08
     4     2  2025    -9     0     373.1     3.8      0.0    0.0    3.8    0.0      9.7      0.0   -9.90      0.6      0.6    100      0.0      0.0   100      0.6     0.6     100      0.0    0.00     -9     -9      0     -9     -9     1.1     0.0    100    -9.00      0.0      0.0      0.0   100     0.0     0.000    -9.9    0.000    0.000      -9        0.00    0.000    0.000     373.1     -9.9    0.00    -9.9      -9.9      -9.9      -9.9      -9.9      -9.9      -9.9    0.000     0.000     0.000     0.000    -9.000    0.00    -9.00   -9.00      0   -9.90   -9.00       34.4       31.4       31.3       31.1       31.0       30.8       30.7       30.6       30.5       30.5       30.4       30.4        0.0        0.0        0.0        0.0        0.0        0.0        0.0        0.0        0.0        0.0        0.0        0.0      3.8       0.5     -14.0      -9.8      -5.6    423.08
     5     2  2025    -9     0     365.9     0.3      0.0    0.0    0.3    0.0      6.7      0.0   -9.90      0.9      0.9     99      0.0      0.0   100      0.9     0.9      99      0.0    0.00     -9     -9      0     -9     -9     1.1     0.0    100    -9.00      0.0      0.0      0.0   100     0.0     0.000    -9.9    0.000    0.000      -9        0.00    0.000    0.000     365.9     -9.9    0.00    -9.9      -9.9      -9.9      -9.9      -9.9      -9.9      -9.9    0.000     0.000     0.000     0.000    -9.000    0.00    -9.00   -9.00      0   -9.90   -9.00       30.4       31.3       30.7       30.5       30.5       30.4       30.4       30.4       30.3       30.3       30.3       30.3        0.0        0.0        0.0        0.0        0.0        0.0        0.0        0.0        0.0        0.0        0.0        0.0      0.3       0.8      -6.6      -2.1       2.4    423.08
     6     2  2025    -9     0     377.2    19.9      0.0    0.0   15.9    4.0      3.5      0.0   -9.90      1.1      1.1    100      0.0      0.0   100      1.1     1.1     100      1.6    0.00     -9     -9      0     -9     -9     1.1     0.0     91    -9.00      0.0      0.0      0.0   100     0.0     0.000    -9.9    0.000    0.000      -9        0.00    0.000    0.000     377.2     -9.9    0.00    -9.9      -9.9      -9.9      -9.9      -9.9      -9.9      -9.9    0.000     0.000     0.000     0.000    -9.000    0.00    -9.00   -9.00      0   -9.90   -9.00       44.9       30.4       30.3       30.2       30.2       30.2       30.2       30.2       30.2       30.2       30.1       30.1        0.0        0.0        0.0        0.0        0.0        0.0        0.0        0.0        0.0        0.0        0.0        0.0     19.9       1.0       1.6       5.6       9.6    423.08
     7     2  2025    -9     0     371.8     0.0      0.0    0.0    0.0    0.0      4.7      0.0   -9.90      0.7      0.7    100      0.0      0.0   100      0.7     0.7     100      0.0    0.00     -9     -9      0     -9     -9     1.1     0.0    100    -9.00      0.0      0.0      0.0   100     0.0     0.000    -9.9    0.000    0.000      -9        0.00    0.000    0.000     371.8     -9.9    0.00    -9.9      -9.9      -9.9      -9.9      -9.9      -9.9      -9.9    0.000     0.000     0.000     0.000    -9.000    0.00    -9.00   -9.00      0   -9.90   -9.00       33.1       33.1       31.7       31.0       30.7       30.5       30.4       30.3       30.3       30.2       30.2       30.2        0.0        0.0        0.0        0.0        0.0        0.0        0.0        0.0        0.0        0.0        0.0        0.0      0.0       0.7      -3.4      -0.4       2.5    423.08
     8     2  2025    -9     0     365.6     0.0      0.0    0.0    0.0    0.0      5.3      0.0   -9.90      0.9      0.9    100      0.0      0.0   100      0.9     0.9     100      0.0    0.00     -9     -9      0     -9     -9     1.1     0.0    100    -9.00      0.0      0.0      0.0   100     0.0     0.000    -9.9    0.000    0.000      -9        0.00    0.000    0.000     365.6     -9.9    0.00    -9.9      -9.9      -9.9      -9.9      -9.9      -9.9      -9.9    0.000     0.000     0.000     0.000    -9.000    0.00    -9.00   -9.00      0   -9.90   -9.00       30.0       30.9       30.9       30.7       30.6       30.5       30.4       30.3       30.3       30.3       30.2       30.2        0.0        0.0        0.0        0.0        0.0        0.0        0.0        0.0        0.0        0.0        0.0        0.0      0.0       0.8      -0.9       2.2       5.3    423.08
     9     2  2025    -9     0     361.3     0.0      0.0    0.0    0.0    0.0      3.4      0.0   -9.90      0.9      0.9    100      0.0      0.0   100      0.9     0.9     100      1.2    0.00     -9     -9      0     -9     -9     1.1     0.0     94    -9.00      0.0      0.0      0.0   100     0.0     0.000    -9.9    0.000    0.000      -9        0.00    0.000    0.000     361.3     -9.9    0.00    -9.9      -9.9      -9.9      -9.9      -9.9      -9.9      -9.9    0.000     0.000     0.000     0.000    -9.000    0.00    -9.00   -9.00      0   -9.90   -9.00       29.1       30.3       30.3       30.2       30.2       30.2       30.2       30.2       30.2       30.2       30.1       30.1        0.0        0.0        0.0        0.0        0.0        0.0        0.0        0.0        0.0        0.0        0.0        0.0      0.0       0.8       3.0       5.2       7.4    423.08
    10     2  2025    -9     0     358.6     0.0      0.0    0.0    0.0    0.0      1.4      0.0   -9.90      1.2      1.2    100      0.0      0.0   100      1.2     1.2     100      3.2    0.00     -9     -9      0     -9     -9     1.2     0.0     59    -9.00      0.0      0.0      0.0   100     0.0     0.000    -9.9    0.000    0.000      -9        0.00    0.000    0.000     358.6     -9.9    0.00    -9.9      -9.9      -9.9      -9.9      -9.9      -9.9      -9.9    0.000     0.000     0.000     0.000    -9.000    0.00    -9.00   -9.00      0   -9.90   -9.00       27.8       30.1       30.1       30.1       30.1       30.1       30.1       30.1       30.1       30.1       30.1       30.1        0.0        0.0        0.0        0.0        0.0        0.0        0.0        0.0        0.0        0.0        0.0        0.0      0.0       1.1       3.4       7.2      11.0    423.08
    11     2  2025    -9     0     360.2     3.1      0.0    0.0    3.1    0.0      0.5      0.0   -9.90      0.9      0.9    100      0.0      0.0   100      0.9     0.9     100      0.0    0.00     -9     -9      0     -9     -9     1.2     0.0    100    -9.00      0.0      0.0      0.0   100     0.0     0.000    -9.9    0.000    0.000      -9        0.00    0.000    0.000     360.2     -9.9    0.00    -9.9      -9.9      -9.9      -9.9      -9.9      -9.9      -9.9    0.000     0.000     0.000     0.000    -9.000    0.00    -9.00   -9.00      0   -9.90   -9.00       30.0       30.0       30.0       30.0       30.0       30.0       30.0       30.0       30.0       30.0       30.0       30.0        0.0        0.0        0.0        0.0        0.0        0.0        0.0        0.0        0.0        0.0        0.0        0.0      3.1       0.8      -5.7      -1.1       3.5    423.08
    12     2  2025    -9     0     366.8     7.6      0.0    0.0    7.2    0.4      0.2      0.0   -9.90      0.5      0.5    100      0.0      0.0   100      0.5     0.5     100      0.0    0.00     -9     -9      0     -9     -9     1.2     0.0    100    -9.00      0.0      0.0      0.0   100     0.0     0.000    -9.9    0.000    0.000      -9        0.00    0.000    0.000     366.8     -9.9    0.00    -9.9      -9.9      -9.9      -9.9      -9.9      -9.9      -9.9    0.000     0.000     0.000     0.000    -9.000    0.00    -9.00   -9.00      0   -9.90   -9.00       36.8       30.0       30.0       30.0       30.0       30.0       30.0       30.0       30.0       30.0       30.0       30.0        0.0        0.0        0.0        0.0        0.0        0.0        0.0        0.0        0.0        0.0        0.0        0.0      7.6       0.4     -10.3      -8.0      -5.7    423.08
    13     2  2025    -9     0     365.6     0.6      0.0    0.0    0.6    0.0      1.4      0.0   -9.90      0.5      0.5    100      0.0      0.0   100      0.5     0.5     100      0.0    0.00     -9     -9      0     -9     -9     1.2     0.0    100    -9.00      0.0      0.0      0.0   100     0.0     0.000    -9.9    0.000    0.000      -9        0.00    0.000    0.000     365.6     -9.9    0.00    -9.9      -9.9      -9.9      -9.9      -9.9      -9.9      -9.9    0.000     0.000     0.000     0.000    -9.000    0.00    -9.00   -9.00      0   -9.90   -9.00       31.5       31.4       30.9       30.7       30.3       30.3       30.2       30.1       30.1       30.1       30.1       30.1        0.0        0.0        0.0        0.0        0.0        0.0        0.0        0.0        0.0        0.0        0.0        0.0      0.6       0.5     -11.4      -8.8      -6.2    423.08
    14     2  2025    -9     0     361.8     0.0      0.0    0.0    0.0    0.0      2.4      0.0   -9.90      1.4      1.3     93      0.0      0.0   100      1.4     1.3      93      0.0    0.00     -9     -9      0     -9     -9     1.2     0.0    100    -9.00      0.0      0.0      0.0   100     0.0     0.000    -9.9    0.000    0.000      -9        0.00    0.000    0.000     361.8     -9.9    0.00    -9.9      -9.9      -9.9      -9.9      -9.9      -9.9      -9.9    0.000     0.000     0.000     0.000    -9.000    0.00    -9.00   -9.00      0   -9.90   -9.00       29.2       30.5       30.4       30.4       30.3       30.2       30.2       30.2       30.1       30.1       30.1       30.1        0.0        0.0        0.0        0.0        0.0        0.0        0.0        0.0        0.0        0.0        0.0        0.0      0.0       1.3     -14.4      -5.2       4.0    423.08
    15     2  2025    -9     0     361.3     2.1      0.0    0.0    2.1    0.0      1.6      0.0   -9.90      1.0      1.0    100      0.0      0.0   100      1.0     1.0     100      2.5    0.00     -9     -9      0     -9     -9     1.2     0.0     75    -9.00      0.0      0.0      0.0   100     0.0     0.000    -9.9    0.000    0.000      -9        0.00    0.000    0.000     361.3     -9.9    0.00    -9.9      -9.9      -9.9      -9.9      -9.9      -9.9      -9.9    0.000     0.000     0.000     0.000    -9.000    0.00    -9.00   -9.00      0   -9.90   -9.00       30.3       30.1       30.1       30.1       30.1       30.1       30.1       30.1       30.1       30.1       30.1       30.1        0.0        0.0        0.0        0.0        0.0        0.0        0.0        0.0        0.0        0.0        0.0        0.0      2.1       0.9       4.0       6.5       9.1    423.08
    16     2  2025    -9     0     375.7    21.7      0.0    0.0   16.9    4.8      0.8      0.0   -9.90      1.7      1.7    100      0.0      0.0   100      1.7     1.7     100      0.0    0.00     -9     -9      0     -9     -9     1.2     0.0    100    -9.00      0.0      0.0      0.0   100     0.0     0.000    -9.9    0.000    0.000      -9        0.00    0.000    0.000     375.7     -9.9    0.00    -9.9      -9.9      -9.9      -9.9      -9.9      -9.9      -9.9    0.000     0.000     0.000     0.000    -9.000    0.00    -9.00   -9.00      0   -9.90   -9.00       45.3       30.1       30.1       30.0       30.0       30.0       30.0       30.0       30.0       30.0       30.0       30.0        0.0        0.0        0.0        0.0        0.0        0.0        0.0        0.0        0.0        0.0        0.0        0.0     21.7       1.6      -5.6       2.8      11.1    423.08
    17     2  2025    -9     0     374.8     3.7      0.0    0.0    3.7    0.0      3.6      0.0   -9.90      1.0      1.0    100      0.0      0.0   100      1.0     1.0     100      0.0    0.00     -9     -9      0     -9     -9     1.2     0.0    100    -9.00      0.0      0.0      0.0   100     0.0     0.000    -9.9    0.000    0.000      -9        0.00    0.000    0.000     374.8     -9.9    0.00    -9.9      -9.9      -9.9      -9.9      -9.9      -9.9      -9.9    0.000     0.000     0.000     0.000    -9.000    0.00    -9.00   -9.00      0   -9.90   -9.00       34.2       33.4       33.0       31.2       30.9       30.5       30.4       30.3       30.3       30.2       30.2       30.2        0.0        0.0        0.0        0.0        0.0        0.0        0.0        0.0        0.0        0.0        0.0        0.0      3.7       0.9      -8.0      -3.0       1.9    423.08
    18     2  2025    -9     0     367.3     0.2      0.0    0.0    0.2    0.0      6.6      0.0   -9.90      1.1      1.0     98      0.0      0.0   100      1.1     1.0      98      0.0    0.00     -9     -9      0     -9     -9     1.2     0.0    100    -9.00      0.0      0.0      0.0   100     0.0     0.000    -9.9    0.000    0.000      -9        0.00    0.000    0.000     367.3     -9.9    0.00    -9.9      -9.9      -9.9      -9.9      -9.9      -9.9      -9.9    0.000     0.000     0.000     0.000    -9.000    0.00    -9.00   -9.00      0   -9.90   -9.00       30.2       31.3       31.1       31.0       30.8       30.6       30.5       30.4       30.4       30.3       30.3       30.3        0.0        0.0        0.0        0.0        0.0        0.0        0.0        0.0        0.0        0.0        0.0        0.0      0.2       1.0      -7.4      -2.5       2.5    423.08
    19     2  2025    -9     0     361.8     0.0      0.0    0.0    0.0    0.0      4.4      0.0   -9.90      1.3      1.1     83      0.0      0.0   100      1.3     1.1      83      0.0    0.00     -9     -9      0     -9     -9     1.2     0.0    100    -9.00      0.0      0.0      0.0   100     0.0     0.000    -9.9    0.000    0.000      -9        0.00    0.000    0.000     361.8     -9.9    0.00    -9.9      -9.9      -9.9      -9.9      -9.9      -9.9      -9.9    0.000     0.000     0.000     0.000    -9.000    0.00    -9.00   -9.00      0   -9.90   -9.00       29.0       30.4       30.3       30.3       30.3       30.3       30.3       30.2       30.2       30.2       30.2       30.2        0.0        0.0        0.0        0.0        0.0        0.0        0.0        0.0        0.0        0.0        0.0        0.0      0.0       1.2      -1.8       2.6       7.0    423.08
    20     2  2025    -9     0     360.0     1.3      0.0    0.0    1.3    0.0      1.9      0.0   -9.90      1.3      1.3    100      0.0      0.0   100      1.3     1.3     100      0.0    0.00     -9     -9      0     -9     -9     1.2     0.0    100    -9.00      0.0      0.0      0.0   100     0.0     0.000    -9.9    0.000    0.000      -9        0.00    0.000    0.000     360.0     -9.9    0.00    -9.9      -9.9      -9.9      -9.9      -9.9      -9.9      -9.9    0.000     0.000     0.000     0.000    -9.000    0.00    -9.00   -9.00      0   -9.90   -9.00       29.0       30.1       30.1       30.1       30.1       30.1       30.1       30.1       30.1       30.1       30.1       30.1        0.0        0.0        0.0        0.0        0.0        0.0        0.0        0.0        0.0        0.0        0.0        0.0      1.3       1.1      -0.3       3.6       7.6    423.08
    21     2  2025    -9     0     367.9    10.9      0.0    0.0   10.1    0.8      0.7      0.0   -9.90      1.5      1.5    100      0.0      0.0   100      1.5     1.5     100      0.0    0.00     -9     -9      0     -9     -9     1.2     0.0    100    -9.00      0.0      0.0      0.0   100     0.0     0.000    -9.9    0.000    0.000      -9        0.00    0.000    0.000     367.9     -9.9    0.00    -9.9      -9.9      -9.9      -9.9      -9.9      -9.9      -9.9    0.000     0.000     0.000     0.000    -9.000    0.00    -9.00   -9.00      0   -9.90   -9.00       37.6       30.0       30.0       30.0       30.0       30.0       30.0       30.0       30.0       30.0       30.0       30.0        0.0        0.0        0.0        0.0        0.0        0.0        0.0        0.0        0.0        0.0        0.0        0.0     10.9       1.4      -4.4       2.4       9.2    423.08
    22     2  2025    -9     0     365.5     0.0      0.0    0.0    0.0    0.0      1.7      0.0   -9.90      0.7      0.7    100      0.0      0.0   100      0.7     0.7     100      0.0    0.00     -9     -9      0     -9     -9     1.2     0.0    100    -9.00      0.0      0.0      0.0   100     0.0     0.000    -9.9    0.000    0.000      -9        0.00    0.000    0.000     365.5     -9.9    0.00    -9.9      -9.9      -9.9      -9.9      -9.9      -9.9      -9.9    0.000     0.000     0.000     0.000    -9.000    0.00    -9.00   -9.00      0   -9.90   -9.00       31.4       31.6       30.8       30.5       30.3       30.2       30.2       30.1       30.1       30.1       30.1       30.1        0.0        0.0        0.0        0.0        0.0        0.0        0.0        0.0        0.0        0.0        0.0        0.0      0.0       0.7      -9.3      -6.6      -3.9    423.08
    23     2  2025    -9     0     374.2    13.0      0.0    0.0   11.4    1.6      2.4      0.0   -9.90      0.4      0.4    100      0.0      0.0   100      0.4     0.4     100      0.0    0.00     -9     -9      0     -9     -9     1.2     0.0    100    -9.00      0.0      0.0      0.0   100     0.0     0.000    -9.9    0.000    0.000      -9        0.00    0.000    0.000     374.2     -9.9    0.00    -9.9      -9.9      -9.9      -9.9      -9.9      -9.9      -9.9    0.000     0.000     0.000     0.000    -9.000    0.00    -9.00   -9.00      0   -9.90   -9.00       41.5       30.5       30.5       30.4       30.3       30.2       30.2       30.2       30.1       30.1       30.1       30.1        0.0        0.0        0.0        0.0        0.0        0.0        0.0        0.0        0.0        0.0        0.0        0.0     13.0       0.3     -11.4      -9.6      -7.7    423.08
    24     2  2025    -9     0     370.3     1.1      0.0    0.0    1.1    0.0      4.1      0.0   -9.90      0.8      0.8    100      0.0      0.0   100      0.8     0.8     100      0.0    0.00     -9     -9      0     -9     -9     1.2     0.0    100    -9.00      0.0      0.0      0.0   100     0.0     0.000    -9.9    0.000    0.000      -9        0.00    0.000    0.000     370.3     -9.9    0.00    -9.9      -9.9      -9.9      -9.9      -9.9      -9.9      -9.9    0.000     0.000     0.000     0.000    -9.000    0.00    -9.00   -9.00      0   -9.90   -9.00       32.3       32.5       31.6       31.2       30.6       30.5       30.4       30.3       30.3       30.2       30.2       30.2        0.0        0.0        0.0        0.0        0.0        0.0        0.0        0.0        0.0        0.0        0.0        0.0      1.1       0.8      -9.8      -6.2      -2.5    423.08
    25     2  2025    -9     0     365.2     0.8      0.0    0.0    0.8    0.0      5.1      0.0   -9.90      0.9      0.9    100      0.0      0.0   100      0.9     0.9     100      0.0    0.00     -9     -9      0     -9     -9     1.2     0.0    100    -9.00      0.0      0.0      0.0   100     0.0     0.000    -9.9    0.000    0.000      -9        0.00    0.000    0.000     365.2     -9.9    0.00    -9.9      -9.9      -9.9      -9.9      -9.9      -9.9      -9.9    0.000     0.000     0.000     0.000    -9.000    0.00    -9.00   -9.00      0   -9.90   -9.00       30.3       30.8       30.7       30.6       30.5       30.5       30.4       30.4       30.3       30.3       30.2       30.2        0.0        0.0        0.0        0.0        0.0        0.0        0.0        0.0        0.0        0.0        0.0        0.0      0.8       0.8      -5.8      -1.8       2.1    423.08
    26     2  2025    -9     0     361.7     0.2      0.0    0.0    0.2    0.0      3.2      0.0   -9.90      0.6      0.6     98      0.0      0.0   100      0.6     0.6      98      0.0    0.00     -9     -9      0     -9     -9     1.2     0.0    100    -9.00      0.0      0.0      0.0   100     0.0     0.000    -9.9    0.000    0.000      -9        0.00    0.000    0.000     361.7     -9.9    0.00    -9.9      -9.9      -9.9      -9.9      -9.9      -9.9      -9.9    0.000     0.000     0.000     0.000    -9.000    0.00    -9.00   -9.00      0   -9.90   -9.00       29.7       30.2       30.2       30.2       30.2       30.2       30.2       30.2       30.2       30.1       30.1       30.1        0.0        0.0        0.0        0.0        0.0        0.0        0.0        0.0        0.0        0.0        0.0        0.0      0.2       0.5     -10.4      -8.2      -5.9    423.08
    27     2  2025    -9     0     359.2     0.0      0.0    0.0    0.0    0.0      1.3      0.0   -9.90      1.3      1.2     88      0.0      0.0   100      1.3     1.2      88      0.0    0.00     -9     -9      0     -9     -9     1.2     0.0    100    -9.00      0.0      0.0      0.0   100     0.0     0.000    -9.9    0.000    0.000      -9        0.00    0.000    0.000     359.2     -9.9    0.00    -9.9      -9.9      -9.9      -9.9      -9.9      -9.9      -9.9    0.000     0.000     0.000     0.000    -9.000    0.00    -9.00   -9.00      0   -9.90   -9.00       28.6       30.1       30.1       30.1       30.1       30.1       30.1       30.1       30.1       30.1       30.1       30.1        0.0        0.0        0.0        0.0        0.0        0.0        0.0        0.0        0.0        0.0        0.0        0.0      0.0       1.2     -13.4      -6.0       1.3    423.08
    28     2  2025    -9     0     361.8     4.0      0.0    0.0    4.0    0.0      0.4      0.0   -9.90      1.0      1.0    100      0.0      0.0   100      1.0     1.0     100      0.0    0.00     -9     -9      0     -9     -9     1.2     0.0    100    -9.00      0.0      0.0      0.0   100     0.0     0.000    -9.9    0.000    0.000      -9        0.00    0.000    0.000     361.8     -9.9    0.00    -9.9      -9.9      -9.9      -9.9      -9.9      -9.9      -9.9    0.000     0.000     0.000     0.000    -9.000    0.00    -9.00   -9.00      0   -9.90   -9.00       31.6       30.0       30.0       30.0       30.0       30.0       30.0       30.0       30.0       30.0       30.0       30.0        0.0        0.0        0.0        0.0        0.0        0.0        0.0        0.0        0.0        0.0        0.0        0.0      4.0       0.9      -3.0       0.4       3.8    423.08
     1     3  2025    -9     0     367.0     6.8      0.0    0.0    6.5    0.3      0.4      0.0   -9.90      0.9      0.9    100      0.0      0.0   100      0.9     0.9     100      0.0    0.00     -9     -9      0     -9     -9     1.2     0.0    100    -9.00      0.0      0.0      0.0   100     0.0     0.000    -9.9    0.000    0.000      -9        0.00    0.000    0.000     367.0     -9.9    0.00    -9.9      -9.9      -9.9      -9.9      -9.9      -9.9      -9.9    0.000     0.000     0.000     0.000    -9.000    0.00    -9.00   -9.00      0   -9.90   -9.00       36.1       30.3       30.2       30.1       30.1       30.0       30.0       30.0       30.0       30.0       30.0       30.0        0.0        0.0        0.0        0.0        0.0        0.0        0.0        0.0        0.0        0.0        0.0        0.0      6.8       0.8      -9.5      -5.2      -0.8    423.08
     2     3  2025    -9     0     365.6     1.2      0.0    0.0    1.2    0.0      1.6      0.0   -9.90      1.0      1.0    100      0.0      0.0   100      1.0     1.0     100      0.0    0.00     -9     -9      0     -9     -9     1.2     0.0    100    -9.00      0.0      0.0      0.0   100     0.0     0.000    -9.9    0.000    0.000      -9        0.00    0.000    0.000     365.6     -9.9    0.00    -9.9      -9.9      -9.9      -9.9      -9.9      -9.9      -9.9    0.000     0.000     0.000     0.000    -9.000    0.00    -9.00   -9.00      0   -9.90   -9.00       30.8       31.7       31.2       30.5       30.4       30.2       30.2       30.1       30.1       30.1       30.1       30.1        0.0        0.0        0.0        0.0        0.0        0.0        0.0        0.0        0.0        0.0        0.0        0.0      1.2       0.9     -11.8      -7.0      -2.2    423.08
     3     3  2025    -9     0     362.1     0.0      0.0    0.0    0.0    0.0      2.6      0.0   -9.90      1.0      0.9     97      0.0      0.0   100      1.0     0.9      97      0.0    0.00     -9     -9      0     -9     -9     1.2     0.0    100    -9.00      0.0      0.0      0.0   100     0.0     0.000    -9.9    0.000    0.000      -9        0.00    0.000    0.000     362.1     -9.9    0.00    -9.9      -9.9      -9.9      -9.9      -9.9      -9.9      -9.9    0.000     0.000     0.000     0.000    -9.000    0.00    -9.00   -9.00      0   -9.90   -9.00       29.3       30.5       30.4       30.4       30.3       30.3       30.2       30.2       30.2       30.1       30.1       30.1        0.0        0.0        0.0        0.0        0.0        0.0        0.0        0.0        0.0        0.0        0.0        0.0      0.0       0.9      -4.5      -1.8       0.9    423.08
     4     3  2025    -9     0     361.1     1.7      0.0    0.0    1.7    0.0      1.7      0.0   -9.90      1.0      1.0    100      0.0      0.0   100      1.0     1.0     100      0.0    0.00     -9     -9      0     -9     -9     1.2     0.0    100    -9.00      0.0      0.0      0.0   100     0.0     0.000    -9.9    0.000    0.000      -9        0.00    0.000    0.000     361.1     -9.9    0.00    -9.9      -9.9      -9.9      -9.9      -9.9      -9.9      -9.9    0.000     0.000     0.000     0.000    -9.000    0.00    -9.00   -9.00      0   -9.90   -9.00       30.0       30.2       30.1       30.1       30.1       30.1       30.1       30.1       30.1       30.1       30.1       30.1        0.0        0.0        0.0        0.0        0.0        0.0        0.0        0.0        0.0        0.0        0.0        0.0      1.7       0.9      -0.1       3.7       7.5    423.08
     5     3  2025    -9     0     369.7    12.0      0.0    0.0   10.7    1.3      0.7      0.0   -9.90      1.3      1.3    100      0.0      0.0   100      1.3     1.3     100      2.6    0.00     -9     -9      0     -9     -9     1.3     0.0     74    -9.00      0.0      0.0      0.0   100     0.0     0.000    -9.9    0.000    0.000      -9        0.00    0.000    0.000     369.7     -9.9    0.00    -9.9      -9.9      -9.9      -9.9      -9.9      -9.9      -9.9    0.000     0.000     0.000     0.000    -9.000    0.00    -9.00   -9.00      0   -9.90   -9.00       39.3       30.1       30.0       30.0       30.0       30.0       30.0       30.0       30.0       30.0       30.0       30.0        0.0        0.0        0.0        0.0        0.0        0.0        0.0        0.0        0.0        0.0        0.0        0.0     12.0       1.2       3.8       6.6       9.4    423.08
     6     3  2025    -9     0     366.4     0.3      0.0    0.0    0.3    0.0      2.1      0.0   -9.90      1.6      1.5     94      0.0      0.0   100      1.6     1.5      94      0.9    0.00      0     -9      0     -9     -9     1.3     0.0     97    -9.00      0.0      0.0      0.0   100     0.0     0.000    -9.9    0.000    0.000      -9        0.00    0.000    0.000     366.4     -9.9    0.00    -9.9      -9.9      -9.9      -9.9      -9.9      -9.9      -9.9    0.000     0.000     0.000     0.000    -9.000    0.00    -9.00   -9.00      0   -9.90   -9.00       31.2       32.0       31.0       30.6       30.4       30.3       30.2       30.2       30.2       30.1       30.1       30.1        0.0        0.0        0.0        0.0        0.0        0.0        0.0        0.0        0.0        0.0        0.0        0.0      0.3       1.4       1.8       4.9       7.9    423.08
     7     3  2025    -9     0     367.9     5.9      0.0    0.0    5.7    0.2      3.0      0.0   -9.90      1.2      1.2    100      0.0      0.0   100      1.2     1.2     100      0.0    0.00      0     -9      0     -9     -9     1.3     0.0    100    -9.00      0.0      0.0      0.0   100     0.0     0.000    -9.9    0.000    0.000      -9        0.00    0.000    0.000     367.9     -9.9    0.00    -9.9      -9.9      -9.9      -9.9      -9.9      -9.9      -9.9    0.000     0.000     0.000     0.000    -9.000    0.00    -9.00   -9.00      0   -9.90   -9.00       34.9       30.6       30.5       30.4       30.3       30.3       30.2       30.2       30.2       30.2       30.1       30.1        0.0        0.0        0.0        0.0        0.0        0.0        0.0        0.0        0.0        0.0        0.0        0.0      5.9       1.1      -0.2       3.1       6.5    423.08
     8     3  2025    -9     0     363.9     0.0      0.0    0.0    0.0    0.0      2.8      0.0   -9.90      1.3      1.3    100      0.0      0.0   100      1.3     1.3     100      0.0    0.00      0     -9      0     -9     -9     1.3     0.0    100    -9.00      0.0      0.0      0.0   100     0.0     0.000    -9.9    0.000    0.000      -9        0.00    0.000    0.000     363.9     -9.9    0.00    -9.9      -9.9      -9.9      -9.9      -9.9      -9.9      -9.9    0.000     0.000     0.000     0.000    -9.000    0.00    -9.00   -9.00      0   -9.90   -9.00       30.2       31.2       30.6       30.4       30.3       30.2       30.2       30.2       30.2       30.1       30.1       30.1        0.0        0.0        0.0        0.0        0.0        0.0        0.0        0.0        0.0        0.0        0.0        0.0      0.0       1.1      -2.2       1.4       5.0    423.08
     9     3  2025    -9     0     360.2     0.0      0.0    0.0    0.0    0.0      2.1      0.0   -9.90      1.6      1.6    100      0.0      0.0   100      1.6     1.6     100      0.0    0.00      0     -9      0     -9     -9     1.3     0.0    100    -9.00      0.0      0.0      0.0   100     0.0     0.000    -9.9    0.000    0.000      -9        0.00    0.000    0.000     360.2     -9.9    0.00    -9.9      -9.9      -9.9      -9.9      -9.9      -9.9      -9.9    0.000     0.000     0.000     0.000    -9.000    0.00    -9.00   -9.00      0   -9.90   -9.00       28.4       30.4       30.2       30.2       30.2       30.2       30.1       30.1       30.1       30.1       30.1       30.1        0.0        0.0        0.0        0.0        0.0        0.0        0.0        0.0        0.0        0.0        0.0        0.0      0.0       1.5      -1.4       2.8       6.9    423.08
    10     3  2025    -9     0     379.0    27.9      0.0    0.0   21.4    6.5      1.1      0.0   -9.90      1.5      1.5    100      0.0      0.0   100      1.5     1.5     100      1.8    0.00      0     -9      0     -9     -9     1.4     0.0     89    -9.00      0.0      0.0      0.0   100     0.0     0.000    -9.9    0.000    0.000      -9        0.00    0.000    0.000     379.0     -9.9    0.00    -9.9      -9.9      -9.9      -9.9      -9.9      -9.9      -9.9    0.000     0.000     0.000     0.000    -9.000    0.00    -9.00   -9.00      0   -9.90   -9.00       48.3       30.1       30.1       30.1       30.1       30.1       30.1       30.1       30.1       30.0       30.0       30.0        0.0        0.0        0.0        0.0        0.0        0.0        0.0        0.0        0.0        0.0        0.0        0.0     27.9       1.4       0.2       5.8      11.3    423.08
    11     3  2025    -9     0     374.7     1.4      0.0    0.0    1.4    0.0      4.6      0.0   -9.90      1.0      1.0    100      0.0      0.0   100      1.0     1.0     100      0.0    0.00      0     -9      0     -9     -9     1.4     0.0    100    -9.00      0.0      0.0      0.0   100     0.0     0.000    -9.9    0.000    0.000      -9        0.00    0.000    0.000     374.7     -9.9    0.00    -9.9      -9.9      -9.9      -9.9      -9.9      -9.9      -9.9    0.000     0.000     0.000     0.000    -9.000    0.00    -9.00   -9.00      0   -9.90   -9.00       33.5       33.7       32.1       32.0       30.8       30.8       30.5       30.4       30.3       30.3       30.2       30.2        0.0        0.0        0.0        0.0        0.0        0.0        0.0        0.0        0.0        0.0        0.0        0.0      1.4       0.9      -4.1      -1.7       0.6    423.08
    12     3  2025    -9     0     366.5     0.0      0.0    0.0    0.0    0.0      6.9      0.0   -9.90      1.4      1.3     97      0.0      0.0   100      1.4     1.3      97      0.0    0.00      0     -9      0     -9     -9     1.4     0.0    100    -9.00      0.0      0.0      0.0   100     0.0     0.000    -9.9    0.000    0.000      -9        0.00    0.000    0.000     366.5     -9.9    0.00    -9.9      -9.9      -9.9      -9.9      -9.9      -9.9      -9.9    0.000     0.000     0.000     0.000    -9.000    0.00    -9.00   -9.00      0   -9.90   -9.00       29.7       31.1       31.1       30.9       30.8       30.6       30.5       30.5       30.4       30.4       30.3       30.3        0.0        0.0        0.0        0.0        0.0        0.0        0.0        0.0        0.0        0.0        0.0        0.0      0.0       1.2      -1.5       1.9       5.2    423.08
    13     3  2025    -9     0     361.0     0.0      0.0    0.0    0.0    0.0      4.2      0.0   -9.90      1.7      1.4     82      0.0      0.0   100      1.7     1.4      82      1.0    0.00      0     -9      0     -9     -9     1.4     0.0     96    -9.00      0.0      0.0      0.0   100     0.0     0.000    -9.9    0.000    0.000      -9        0.00    0.000    0.000     361.0     -9.9    0.00    -9.9      -9.9      -9.9      -9.9      -9.9      -9.9      -9.9    0.000     0.000     0.000     0.000    -9.000    0.00    -9.00   -9.00      0   -9.90   -9.00       28.4       30.3       30.3       30.3       30.2       30.2       30.2       30.2       30.2       30.2       30.2       30.2        0.0        0.0        0.0        0.0        0.0        0.0        0.0        0.0        0.0        0.0        0.0        0.0      0.0       1.5       1.5       5.0       8.5    423.08
    14     3  2025    -9     0     362.8     5.1      0.0    0.0    5.1    0.0      1.7      0.0   -9.90      1.5      1.5    100      0.0      0.0   100      1.5     1.5     100      0.0    0.00      0     -9      0     -9     -9     1.4     0.0    100    -9.00      0.0      0.0      0.0   100     0.0     0.000    -9.9    0.000    0.000      -9        0.00    0.000    0.000     362.8     -9.9    0.00    -9.9      -9.9      -9.9      -9.9      -9.9      -9.9      -9.9    0.000     0.000     0.000     0.000    -9.000    0.00    -9.00   -9.00      0   -9.90   -9.00       31.9       30.1       30.1       30.1       30.1       30.1       30.1       30.1       30.1       30.1       30.1       30.1        0.0        0.0        0.0        0.0        0.0        0.0        0.0        0.0        0.0        0.0        0.0        0.0      5.1       1.4      -0.8       2.8       6.4    423.08
    15     3  2025    -9     0     360.2     0.0      0.0    0.0    0.0    0.0      0.9      0.0   -9.90      1.6      1.6    100      0.0      0.0   100      1.6     1.6     100      1.5    0.00      0     -9      0     -9     -9     1.4     0.0     92    -9.00      0.0      0.0      0.0   100     0.0     0.000    -9.9    0.000    0.000      -9        0.00    0.000    0.000     360.2     -9.9    0.00    -9.9      -9.9      -9.9      -9.9      -9.9      -9.9      -9.9    0.000     0.000     0.000     0.000    -9.000    0.00    -9.00   -9.00      0   -9.90   -9.00       29.0       30.4       30.2       30.1       30.1       30.1       30.1       30.1       30.0       30.0       30.0       30.0        0.0        0.0        0.0        0.0        0.0        0.0        0.0        0.0        0.0        0.0        0.0        0.0      0.0       1.5       1.8       5.5       9.1    423.08
    16     3  2025    -9     0     357.7     0.0      0.0    0.0    0.0    0.0      0.7      0.0   -9.90      1.9      1.9    100      0.0      0.0   100      1.9     1.9     100      3.1    0.00      0     -9      0     -9     -9     1.5     0.0     62    -9.00      0.0      0.0      0.0   100     0.0     0.000    -9.9    0.000    0.000      -9        0.00    0.000    0.000     357.7     -9.9    0.00    -9.9      -9.9      -9.9      -9.9      -9.9      -9.9      -9.9    0.000     0.000     0.000     0.000    -9.000    0.00    -9.00   -9.00      0   -9.90   -9.00       27.1       30.1       30.1       30.1       30.1       30.0       30.0       30.0       30.0       30.0       30.0       30.0        0.0        0.0        0.0        0.0        0.0        0.0        0.0        0.0        0.0        0.0        0.0        0.0      0.0       1.7       3.2       7.1      11.0    423.08
    17     3  2025    -9     0     371.2    17.2      0.0    0.0   15.2    2.0      0.4      0.0   -9.90      1.3      1.3    100      0.0      0.0   100      1.3     1.3     100      2.6    0.00      0     -9      0     -9     -9     1.6     0.0     75    -9.00      0.0      0.0      0.0   100     0.0     0.000    -9.9    0.000    0.000      -9        0.00    0.000    0.000     371.2     -9.9    0.00    -9.9      -9.9      -9.9      -9.9      -9.9      -9.9      -9.9    0.000     0.000     0.000     0.000    -9.000    0.00    -9.00   -9.00      0   -9.90   -9.00       41.0       30.0       30.0       30.0       30.0       30.0       30.0       30.0       30.0       30.0       30.0       30.0        0.0        0.0        0.0        0.0        0.0        0.0        0.0        0.0        0.0        0.0        0.0        0.0     17.2       1.2       3.8       6.6       9.3    423.08
    18     3  2025    -9     0     367.7     0.4      0.0    0.0    0.4    0.0      2.4      0.0   -9.90      1.6      1.5     95      0.0      0.0   100      1.6     1.5      95      2.0    0.00      0     -9      0     -9     -9     1.6     0.0     86    -9.00      0.0      0.0      0.0   100     0.0     0.000    -9.9    0.000    0.000      -9        0.00    0.000    0.000     367.7     -9.9    0.00    -9.9      -9.9      -9.9      -9.9      -9.9      -9.9      -9.9    0.000     0.000     0.000     0.000    -9.000    0.00    -9.00   -9.00      0   -9.90   -9.00       31.5       32.3       31.2       30.7       30.6       30.4       30.3       30.2       30.2       30.1       30.1       30.1        0.0        0.0        0.0        0.0        0.0        0.0        0.0        0.0        0.0        0.0        0.0        0.0      0.4       1.4       2.6       6.0       9.4    423.08
    19     3  2025    -9     0     363.4     0.3      0.0    0.0    0.3    0.0      3.6      0.0   -9.90      1.0      0.9     99      0.0      0.0   100      1.0     0.9      99      0.0    0.00      0     -9      0     -9     -9     1.6     0.0    100    -9.00      0.0      0.0      0.0   100     0.0     0.000    -9.9    0.000    0.000      -9        0.00    0.000    0.000     363.4     -9.9    0.00    -9.9      -9.9      -9.9      -9.9      -9.9      -9.9      -9.9    0.000     0.000     0.000     0.000    -9.000    0.00    -9.00   -9.00      0   -9.90   -9.00       29.5       30.7       30.6       30.5       30.4       30.4       30.3       30.3       30.2       30.2       30.2       30.2        0.0        0.0        0.0        0.0        0.0        0.0        0.0        0.0        0.0        0.0        0.0        0.0      0.3       0.9       1.3       3.8       6.2    423.08
    20     3  2025    -9     0     359.9     0.0      0.0    0.0    0.0    0.0      2.4      0.0   -9.90      1.3      1.2     87      0.0      0.0   100      1.3     1.2      87      0.0    0.00      0     -9      0     -9     -9     1.6     0.0    100    -9.00      0.0      0.0      0.0   100     0.0     0.000    -9.9    0.000    0.000      -9        0.00    0.000    0.000     359.9     -9.9    0.00    -9.9      -9.9      -9.9      -9.9      -9.9      -9.9      -9.9    0.000     0.000     0.000     0.000    -9.000    0.00    -9.00   -9.00      0   -9.90   -9.00       28.4       30.2       30.2       30.2       30.1       30.1       30.1       30.1       30.1       30.1       30.1       30.1        0.0        0.0        0.0        0.0        0.0        0.0        0.0        0.0        0.0        0.0        0.0        0.0      0.0       1.2       0.5       2.4       4.2    423.08
    21     3  2025    -9     0     357.4     0.0      0.0    0.0    0.0    0.0      1.0      0.0   -9.90      1.9      1.4     75      0.0      0.0   100      1.9     1.4      75      0.0    0.00      0     -9      0     -9     -9     1.6     0.0    100    -9.00      0.0      0.0      0.0   100     0.0     0.000    -9.9    0.000    0.000      -9        0.00    0.000    0.000     357.4     -9.9    0.00    -9.9      -9.9      -9.9      -9.9      -9.9      -9.9      -9.9    0.000     0.000     0.000     0.000    -9.000    0.00    -9.00   -9.00      0   -9.90   -9.00       26.9       30.1       30.1       30.0       30.0       30.0       30.0       30.0       30.0       30.0       30.0       30.0        0.0        0.0        0.0        0.0        0.0        0.0        0.0        0.0        0.0        0.0        0.0        0.0      0.0       1.7      -1.2       2.5       6.2    423.08
    22     3  2025    -9     0     363.9     8.5      0.0    0.0    8.2    0.3      0.3      0.0   -9.90      1.4      1.4    100      0.0      0.0   100      1.4     1.4     100      0.0    0.00      0     -9      0     -9     -9     1.6     0.0    100    -9.00      0.0      0.0      0.0   100     0.0     0.000    -9.9    0.000    0.000      -9        0.00    0.000    0.000     363.9     -9.9    0.00    -9.9      -9.9      -9.9      -9.9      -9.9      -9.9      -9.9    0.000     0.000     0.000     0.000    -9.000    0.00    -9.00   -9.00      0   -9.90   -9.00       33.8       30.0       30.0       30.0       30.0       30.0       30.0       30.0       30.0       30.0       30.0       30.0        0.0        0.0        0.0        0.0        0.0        0.0        0.0        0.0        0.0        0.0        0.0        0.0      8.5       1.3      -1.8       2.3       6.4    423.08
    23     3  2025    -9     0     378.7    21.4      0.0    0.0   16.7    4.7      0.8      0.0   -9.90      1.2      1.2    100      0.0      0.0     0      1.2     1.2     100      2.1    0.00      0    100      0     -9     -9     1.7     0.0     83     0.03      0.0      0.0      0.0     0     0.0     0.000    -9.9    0.000    0.000      -9        0.00    0.000    0.000     378.7     -9.9    0.00    -9.9      -9.9      -9.9      -9.9      -9.9      -9.9      -9.9    0.000     0.000     0.000     0.000    -9.000    0.00    -9.00   -9.00      0   -9.90   -9.00       46.7       30.8       30.4       30.2       30.1       30.1       30.1       30.1       30.1       30.0       30.0       30.0        0.0        0.0        0.0        0.0        0.0        0.0        0.0        0.0        0.0        0.0        0.0        0.0     21.4       1.1       2.6       6.1       9.7    423.08
