AquaCrop 7.2 (August 2024) - Output created on (date) : 29-11-2024   at (time) : 11:25:53
Biomass and Yield at Multiple cuttings
