AquaCrop 7.2 (August 2024) - Output created on (date) : 29-11-2024   at (time) : 11:41:46

    RunNr     Day1   Month1    Year1     Rain      ETo       GD     CO2      Irri   Infilt   Runoff    Drain   Upflow        E     E/Ex       Tr      TrW   Tr/Trx    SaltIn   SaltOut    SaltUp  SaltProf     Cycle   SaltStr  FertStr  WeedStr  TempStr   ExpStr   StoStr  BioMass  Brelative   HI    Y(dry)  Y(fresh)    WPet      Bin     Bout     DayN   MonthN    YearN
                                           mm       mm  degC.day    ppm        mm       mm       mm       mm       mm       mm        %       mm       mm        %    ton/ha    ton/ha    ton/ha    ton/ha      days       %        %        %        %        %        %    ton/ha        %       %    ton/ha   ton/ha    kg/m3   ton/ha   ton/ha
   Tot(1)       25        3     2024   1259.7    708.2   2036.1   423.08      0.0   1232.6     27.1    566.0      0.0    574.5       84     89.6     89.6      100     0.000     0.000     0.000     0.000       73        0        0        0        1        0        0     5.277      100     85.0    4.486   44.856     1.84    0.000    0.000       19        3     2025  yarmouth.PRM
