AquaCrop 7.2 (August 2024) - Output created on (date) : 29-11-2024   at (time) : 11:22:06
Biomass and Yield at Multiple cuttings

   Run:   1
    Nr   Day  Month Year   DAP Interval  Biomass    Sum(B)   Dry-Yield  Sum(Y) Fresh-Yield  Sum(Y)
                                 days     ton/ha    ton/ha    ton/ha    ton/ha    ton/ha    ton/ha
     0    26    10  2018                             0.000               0.000               0.000
  9999    27    10  2018                             0.000               0.000               0.000
