AquaCrop 7.2 (August 2024) - Output created on (date) : 29-11-2024   at (time) : 11:22:06

   Run:   1
   Day Month  Year   DAP Stage   WC(1.50)   Rain     Irri   Surf   Infilt   RO    Drain       CR    Zgwt       Ex       E     E/Ex     Trx       Tr  Tr/Trx    ETx      ET  ET/ETx      GD       Z     StExp  StSto  StSen StSalt StWeed   CC      CCw     StTr  Kc(Tr)     Trx       Tr      TrW  Tr/Trx   WP    Biomass     HI    Y(dry)  Y(fresh)  Brelative    WPet      Bin     Bout  WC(1.50) Wr(1.50)     Z       Wr    Wr(SAT)    Wr(FC)   Wr(exp)   Wr(sto)   Wr(sen)   Wr(PWP)    SaltIn    SaltOut   SaltUp   Salt(1.50)  SaltZ     Z       ECe    ECsw   StSalt  Zgwt    ECgw       WC01       WC 2       WC 3       WC 4       WC 5       WC 6       WC 7       WC 8       WC 9       WC10       WC11       WC12      ECe01      ECe 2      ECe 3      ECe 4      ECe 5      ECe 6      ECe 7      ECe 8      ECe 9      ECe10      ECe11      ECe12     Rain       ETo      Tmin      Tavg      Tmax      CO2
                                      mm      mm       mm     mm     mm     mm       mm       mm      m        mm       mm     %        mm       mm    %        mm      mm       %  degC-day     m       %      %      %      %      %      %       %       %       -        mm       mm       mm    %     g/m2    ton/ha      %    ton/ha   ton/ha       %       kg/m3   ton/ha   ton/ha      mm       mm       m       mm        mm        mm        mm        mm        mm         mm    ton/ha    ton/ha    ton/ha    ton/ha    ton/ha     m      dS/m    dS/m      %     m      dS/m       0.05       0.15       0.25       0.35       0.45       0.55       0.68       0.83       0.98       1.13       1.28       1.43       0.05       0.15       0.25       0.35       0.45       0.55       0.68       0.83       0.98       1.13       1.28       1.43       mm        mm     degC      degC      degC       ppm
    26    10  2018    -9     0     464.8    20.4      0.0    0.0   16.2    4.2      0.0      0.0   -9.90      1.4      1.4    100      0.0      0.0   100      1.4     1.4     100      3.9    0.00     -9     -9     -9     -9     -9     0.0     0.0      0    -9.00      0.0      0.0      0.0   100     0.0     0.000    -9.9    0.000    0.000      -9        0.00    0.000    0.000     464.8     -9.9    0.00    -9.9      -9.9      -9.9      -9.9      -9.9      -9.9      -9.9    0.000     0.000     0.000     0.000    -9.000    0.00    -9.00   -9.00      0   -9.90   -9.00       44.8       30.0       30.0       30.0       30.0       30.0       30.0       30.0       30.0       30.0       30.0       30.0        0.0        0.0        0.0        0.0        0.0        0.0        0.0        0.0        0.0        0.0        0.0        0.0     20.4       1.3      -1.2       5.9      12.9    408.72
