AquaCrop 7.2 (August 2024) - Output created on (date) : 30-10-2024   at (time) : 14:08:26
Evaluation of simulation results - Data
                                                                                     for soil depth:  1.00 m
   Day Month  Year   DAP Stage   CCsim   CCobs   CCstd    Bsim      Bobs      Bstd   SWCsim  SWCobs   SWstd
                                   %       %       %     ton/ha    ton/ha    ton/ha    mm       mm      mm
    21     5  2014     1    1     5.4    -9.0    -9.0     0.017    -9.000    -9.000   286.5    -9.0    -9.0
    22     5  2014     2    2     5.9    -9.0    -9.0     0.034    -9.000    -9.000   285.0    -9.0    -9.0
    23     5  2014     3    2     6.4    -9.0    -9.0     0.054    -9.000    -9.000   284.3    -9.0    -9.0
    24     5  2014     4    2     7.0    -9.0    -9.0     0.075     0.045    -9.000   282.1    -9.0    -9.0
    25     5  2014     5    2     7.7    -9.0    -9.0     0.098    -9.000    -9.000   279.8    -9.0    -9.0
    26     5  2014     6    2     8.7    -9.0    -9.0     0.124    -9.000    -9.000   278.5    -9.0    -9.0
    27     5  2014     7    2     9.6    -9.0    -9.0     0.153    -9.000    -9.000   277.9    -9.0    -9.0
    28     5  2014     8    2    10.2    -9.0    -9.0     0.182    -9.000    -9.000   276.9    -9.0    -9.0
    29     5  2014     9    2    11.1    -9.0    -9.0     0.214    -9.000    -9.000   275.2    -9.0    -9.0
    30     5  2014    10    2    12.0    -9.0    -9.0     0.250    -9.000    -9.000   273.6    -9.0    -9.0
    31     5  2014    11    2    13.1    -9.0    -9.0     0.288    -9.000    -9.000   271.8    -9.0    -9.0
     1     6  2014    12    2    14.4    -9.0    -9.0     0.330    -9.000    -9.000   269.9    -9.0    -9.0
     2     6  2014    13    2    16.4    -9.0    -9.0     0.377    -9.000    -9.000   268.1    -9.0    -9.0
     3     6  2014    14    2    18.5    -9.0    -9.0     0.430    -9.000    -9.000   276.5    -9.0    -9.0
     4     6  2014    15    2    20.3    -9.0    -9.0     0.487    -9.000    -9.000   275.5    -9.0    -9.0
     5     6  2014    16    2    21.9    -9.0    -9.0     0.548    -9.000    -9.000   275.8    -9.0    -9.0
     6     6  2014    17    2    24.1    -9.0    -9.0     0.614    -9.000    -9.000   273.5    -9.0    -9.0
     7     6  2014    18    2    27.3    -9.0    -9.0     0.687    -9.000    -9.000   270.2    -9.0    -9.0
     8     6  2014    19    2    30.6    -9.0    -9.0     0.768    -9.000    -9.000   267.8    -9.0    -9.0
     9     6  2014    20    2    33.8    -9.0    -9.0     0.856     0.386    -9.000   264.9    -9.0    -9.0
    10     6  2014    21    2    36.7    -9.0    -9.0     0.949    -9.000    -9.000   262.1    -9.0    -9.0
    11     6  2014    22    2    38.6    -9.0    -9.0     1.046    -9.000    -9.000   273.6    -9.0    -9.0
    12     6  2014    23    2    40.5    -9.0    -9.0     1.147    -9.000    -9.000   292.3    -9.0    -9.0
    13     6  2014    24    2    42.4    -9.0    -9.0     1.251    -9.000    -9.000   304.7    -9.0    -9.0
    14     6  2014    25    2    43.6    -9.0    -9.0     1.358    -9.000    -9.000   293.2    -9.0    -9.0
    15     6  2014    26    2    44.8    -9.0    -9.0     1.466    -9.000    -9.000   285.8    -9.0    -9.0
    16     6  2014    27    2    46.0    -9.0    -9.0     1.577    -9.000    -9.000   282.1    -9.0    -9.0
    17     6  2014    28    2    47.3    -9.0    -9.0     1.690    -9.000    -9.000   289.0    -9.0    -9.0
    18     6  2014    29    2    48.5    -9.0    -9.0     1.804     1.039    -9.000   288.8    -9.0    -9.0
    19     6  2014    30    2    49.3    -9.0    -9.0     1.920    -9.000    -9.000   283.8    -9.0    -9.0
    20     6  2014    31    2    49.9    -9.0    -9.0     2.036    -9.000    -9.000   279.5    -9.0    -9.0
    21     6  2014    32    2    50.6    -9.0    -9.0     2.154    -9.000    -9.000   276.0    -9.0    -9.0
    22     6  2014    33    2    51.4    -9.0    -9.0     2.272    -9.000    -9.000   271.8    -9.0    -9.0
    23     6  2014    34    2    52.0    -9.0    -9.0     2.391    -9.000    -9.000   268.5    -9.0    -9.0
    24     6  2014    35    2    52.6    -9.0    -9.0     2.511    -9.000    -9.000   297.4    -9.0    -9.0
    25     6  2014    36    2    53.1    -9.0    -9.0     2.632     1.217    -9.000   291.7    -9.0    -9.0
    26     6  2014    37    2    53.6    -9.0    -9.0     2.752    -9.000    -9.000   285.5    -9.0    -9.0
    27     6  2014    38    2    54.1    -9.0    -9.0     2.874    -9.000    -9.000   279.7    -9.0    -9.0
    28     6  2014    39    2    54.5    -9.0    -9.0     2.995    -9.000    -9.000   275.1    -9.0    -9.0
    29     6  2014    40    2    54.9    -9.0    -9.0     3.116    -9.000    -9.000   270.6    -9.0    -9.0
    30     6  2014    41    2    55.2    -9.0    -9.0     3.238    -9.000    -9.000   266.9    -9.0    -9.0
     1     7  2014    42    2    55.5    -9.0    -9.0     3.360    -9.000    -9.000   263.5    -9.0    -9.0
     2     7  2014    43    2    55.7    -9.0    -9.0     3.481    -9.000    -9.000   261.7    -9.0    -9.0
     3     7  2014    44    2    55.9    -9.0    -9.0     3.602     2.390    -9.000   261.4    -9.0    -9.0
     4     7  2014    45    2    56.0    -9.0    -9.0     3.723    -9.000    -9.000   258.6    -9.0    -9.0
     5     7  2014    46    2    56.1    -9.0    -9.0     3.843    -9.000    -9.000   254.9    -9.0    -9.0
     6     7  2014    47    2    56.2    -9.0    -9.0     3.963    -9.000    -9.000   251.5    -9.0    -9.0
     7     7  2014    48    2    56.3    -9.0    -9.0     4.083    -9.000    -9.000   255.4    -9.0    -9.0
     8     7  2014    49    2    56.4    -9.0    -9.0     4.202    -9.000    -9.000   269.0    -9.0    -9.0
     9     7  2014    50    2    56.5    -9.0    -9.0     4.320    -9.000    -9.000   268.6    -9.0    -9.0
    10     7  2014    51    2    56.5    -9.0    -9.0     4.438     3.191    -9.000   263.7    -9.0    -9.0
    11     7  2014    52    2    56.6    -9.0    -9.0     4.555    -9.000    -9.000   259.0    -9.0    -9.0
    12     7  2014    53    2    56.6    -9.0    -9.0     4.671    -9.000    -9.000   255.1    -9.0    -9.0
    13     7  2014    54    2    56.6    -9.0    -9.0     4.787     3.606    -9.000   268.2    -9.0    -9.0
    14     7  2014    55    2    28.3    -9.0    -9.0     4.854    -9.000    -9.000   265.7    -9.0    -9.0
    15     7  2014    56    2    31.7    -9.0    -9.0     4.928     3.947    -9.000   266.6    -9.0    -9.0
    16     7  2014    57    2    34.3    -9.0    -9.0     5.006    -9.000    -9.000   264.4    -9.0    -9.0
    17     7  2014    58    2    36.5    -9.0    -9.0     5.088    -9.000    -9.000   261.5    -9.0    -9.0
    18     7  2014    59    2    39.0    -9.0    -9.0     5.174    -9.000    -9.000   258.2    -9.0    -9.0
    19     7  2014    60    2    41.1    -9.0    -9.0     5.263    -9.000    -9.000   255.5    -9.0    -9.0
    20     7  2014    61    2    43.2    -9.0    -9.0     5.355    -9.000    -9.000   253.2    -9.0    -9.0
    21     7  2014    62    2    45.1    -9.0    -9.0     5.450    -9.000    -9.000   250.4    -9.0    -9.0
    22     7  2014    63    2    46.8    -9.0    -9.0     5.546    -9.000    -9.000   247.5    -9.0    -9.0
    23     7  2014    64    2    48.0    -9.0    -9.0     5.644    -9.000    -9.000   248.8    -9.0    -9.0
    24     7  2014    65    2    48.9    -9.0    -9.0     5.740     4.407    -9.000   246.5    -9.0    -9.0
    25     7  2014    66    2    49.9    -9.0    -9.0     5.834    -9.000    -9.000   243.7    -9.0    -9.0
    26     7  2014    67    2    50.7    -9.0    -9.0     5.926    -9.000    -9.000   241.3    -9.0    -9.0
    27     7  2014    68    2    51.6    -9.0    -9.0     6.017    -9.000    -9.000   244.8    -9.0    -9.0
    28     7  2014    69    2    52.0    -9.0    -9.0     6.104    -9.000    -9.000   245.2    -9.0    -9.0
    29     7  2014    70    2    52.5    -9.0    -9.0     6.189    -9.000    -9.000   243.0    -9.0    -9.0
    30     7  2014    71    2    53.0    -9.0    -9.0     6.272     4.853    -9.000   251.3    -9.0    -9.0
    31     7  2014    72    2    53.4    -9.0    -9.0     6.352    -9.000    -9.000   258.6    -9.0    -9.0
     1     8  2014    73    2    53.8    -9.0    -9.0     6.430    -9.000    -9.000   257.8    -9.0    -9.0
     2     8  2014    74    2    54.3    -9.0    -9.0     6.505    -9.000    -9.000   253.8    -9.0    -9.0
     3     8  2014    75    2    54.6    -9.0    -9.0     6.577    -9.000    -9.000   251.0    -9.0    -9.0
     4     8  2014    76    2    55.0    -9.0    -9.0     6.648    -9.000    -9.000   247.9    -9.0    -9.0
     5     8  2014    77    2    55.2    -9.0    -9.0     6.716    -9.000    -9.000   245.6    -9.0    -9.0
     6     8  2014    78    2    55.4    -9.0    -9.0     6.781    -9.000    -9.000   243.5    -9.0    -9.0
     7     8  2014    79    2    55.6    -9.0    -9.0     6.844     6.189    -9.000   240.3    -9.0    -9.0
     8     8  2014    80    2    55.8    -9.0    -9.0     6.906    -9.000    -9.000   237.1    -9.0    -9.0
     9     8  2014    81    2    56.3    -9.0    -9.0     6.965    -9.000    -9.000   233.8    -9.0    -9.0
    10     8  2014    82    2    56.2    -9.0    -9.0     7.022    -9.000    -9.000   230.3    -9.0    -9.0
    11     8  2014    83    2    56.1    -9.0    -9.0     7.077    -9.000    -9.000   226.9    -9.0    -9.0
    12     8  2014    84    2    56.1    -9.0    -9.0     7.130    -9.000    -9.000   239.0    -9.0    -9.0
    13     8  2014    85    2    56.1    -9.0    -9.0     7.181    -9.000    -9.000   259.8    -9.0    -9.0
    14     8  2014    86    2    56.0    -9.0    -9.0     7.230     6.263    -9.000   258.8    -9.0    -9.0
    15     8  2014    87    2    56.0    -9.0    -9.0     7.278    -9.000    -9.000   258.8    -9.0    -9.0
    16     8  2014    88    2    56.0    -9.0    -9.0     7.325    -9.000    -9.000   267.1    -9.0    -9.0
    17     8  2014    89    2    55.9    -9.0    -9.0     7.370    -9.000    -9.000   266.2    -9.0    -9.0
    18     8  2014    90    2    55.9    -9.0    -9.0     7.413     6.901    -9.000   262.5    -9.0    -9.0
    19     8  2014    91    2    55.8    -9.0    -9.0     7.456    -9.000    -9.000   260.2    -9.0    -9.0
    20     8  2014    92    2    55.8    -9.0    -9.0     7.496    -9.000    -9.000   261.9    -9.0    -9.0
    21     8  2014    93    2    55.7    -9.0    -9.0     7.536    -9.000    -9.000   270.7    -9.0    -9.0
    22     8  2014    94    2    55.7    -9.0    -9.0     7.574    -9.000    -9.000   270.3    -9.0    -9.0
    23     8  2014    95    2    55.6    -9.0    -9.0     7.611    -9.000    -9.000   267.1    -9.0    -9.0
    24     8  2014    96    2    55.6    -9.0    -9.0     7.647     7.168    -9.000   263.3    -9.0    -9.0
    25     8  2014    97    2    55.5    -9.0    -9.0     7.682    -9.000    -9.000   259.3    -9.0    -9.0
    26     8  2014    98    2    55.4    -9.0    -9.0     7.716    -9.000    -9.000   255.9    -9.0    -9.0
    27     8  2014    99    2    55.3    -9.0    -9.0     7.748    -9.000    -9.000   253.4    -9.0    -9.0
    28     8  2014   100    2    55.3    -9.0    -9.0     7.780    -9.000    -9.000   251.3    -9.0    -9.0
    29     8  2014   101    2    55.2    -9.0    -9.0     7.810    -9.000    -9.000   248.8    -9.0    -9.0
    30     8  2014   102    2    55.2    -9.0    -9.0     7.840    -9.000    -9.000   248.0    -9.0    -9.0
    31     8  2014   103    2    55.1    -9.0    -9.0     7.869     7.242    -9.000   253.0    -9.0    -9.0
     1     9  2014   104    2    28.8    -9.0    -9.0     7.906    -9.000    -9.000   253.6    -9.0    -9.0
     2     9  2014   105    2    32.9    -9.0    -9.0     7.943    -9.000    -9.000   260.4    -9.0    -9.0
     3     9  2014   106    2    35.8    -9.0    -9.0     7.981    -9.000    -9.000   257.4    -9.0    -9.0
     4     9  2014   107    2    38.4    -9.0    -9.0     8.019    -9.000    -9.000   254.8    -9.0    -9.0
     5     9  2014   108    2    41.0    -9.0    -9.0     8.056    -9.000    -9.000   257.9    -9.0    -9.0
     6     9  2014   109    2    42.5    -9.0    -9.0     8.092    -9.000    -9.000   264.6    -9.0    -9.0
     7     9  2014   110    2    43.8    -9.0    -9.0     8.127    -9.000    -9.000   262.5    -9.0    -9.0
     8     9  2014   111    2    45.1    -9.0    -9.0     8.161    -9.000    -9.000   259.6    -9.0    -9.0
     9     9  2014   112    2    46.3    -9.0    -9.0     8.195    -9.000    -9.000   257.2    -9.0    -9.0
    10     9  2014   113    2    47.4    -9.0    -9.0     8.228    -9.000    -9.000   257.0    -9.0    -9.0
    11     9  2014   114    2    48.2    -9.0    -9.0     8.260    -9.000    -9.000   261.0    -9.0    -9.0
    12     9  2014   115    2    48.7    -9.0    -9.0     8.286    -9.000    -9.000   259.3    -9.0    -9.0
    13     9  2014   116    2    49.0    -9.0    -9.0     8.304    -9.000    -9.000   270.6    -9.0    -9.0
    14     9  2014   117    2    49.3    -9.0    -9.0     8.327    -9.000    -9.000   270.4    -9.0    -9.0
    15     9  2014   118    2    49.8    -9.0    -9.0     8.356    -9.000    -9.000   270.0    -9.0    -9.0
    16     9  2014   119    2    50.4    -9.0    -9.0     8.388    -9.000    -9.000   268.0    -9.0    -9.0
    17     9  2014   120    2    50.7    -9.0    -9.0     8.413    -9.000    -9.000   270.4    -9.0    -9.0
    18     9  2014   121    2    50.8    -9.0    -9.0     8.415    -9.000    -9.000   270.0    -9.0    -9.0
    19     9  2014   122    2    50.9    -9.0    -9.0     8.416    -9.000    -9.000   269.4    -9.0    -9.0
    20     9  2014   123    2    51.3    -9.0    -9.0     8.446    -9.000    -9.000   270.8    -9.0    -9.0
    21     9  2014   124    2    51.9    -9.0    -9.0     8.477    -9.000    -9.000   284.4    -9.0    -9.0
    22     9  2014   125    2    52.2    -9.0    -9.0     8.490    -9.000    -9.000   284.5    -9.0    -9.0
    23     9  2014   126    2    52.5    -9.0    -9.0     8.519    -9.000    -9.000   283.2    -9.0    -9.0
    24     9  2014   127    2    53.0    -9.0    -9.0     8.549    -9.000    -9.000   282.2    -9.0    -9.0
    25     9  2014   128    2    53.5    -9.0    -9.0     8.579    -9.000    -9.000   279.9    -9.0    -9.0
    26     9  2014   129    2    54.0    -9.0    -9.0     8.609    -9.000    -9.000   277.4    -9.0    -9.0
    27     9  2014   130    2    54.6    -9.0    -9.0     8.639    -9.000    -9.000   275.0    -9.0    -9.0
    28     9  2014   131    2    55.1    -9.0    -9.0     8.669    -9.000    -9.000   272.9    -9.0    -9.0
    29     9  2014   132    2    55.5    -9.0    -9.0     8.698    -9.000    -9.000   271.6    -9.0    -9.0
    30     9  2014   133    2    55.8    -9.0    -9.0     8.728    -9.000    -9.000   270.4    -9.0    -9.0
     1    10  2014   134    2    56.1    -9.0    -9.0     8.756    -9.000    -9.000   269.1    -9.0    -9.0
     2    10  2014   135    2    56.4    -9.0    -9.0     8.785    -9.000    -9.000   267.6    -9.0    -9.0
     3    10  2014   136    2    56.7    -9.0    -9.0     8.814    -9.000    -9.000   267.0    -9.0    -9.0
     4    10  2014   137    2    56.9    -9.0    -9.0     8.842    -9.000    -9.000   278.1    -9.0    -9.0
     5    10  2014   138    2    57.0    -9.0    -9.0     8.853    -9.000    -9.000   278.4    -9.0    -9.0
     6    10  2014   139    2    57.1    -9.0    -9.0     8.875    -9.000    -9.000   278.8    -9.0    -9.0
     7    10  2014   140    2    57.3    -9.0    -9.0     8.904    -9.000    -9.000   283.7    -9.0    -9.0
     8    10  2014   141    2    57.5    -9.0    -9.0     8.931    -9.000    -9.000   292.1    -9.0    -9.0
     9    10  2014   142    2    57.5    -9.0    -9.0     8.937    -9.000    -9.000   292.0    -9.0    -9.0
    10    10  2014   143    2    57.5    -9.0    -9.0     8.943    -9.000    -9.000   290.2    -9.0    -9.0
    11    10  2014   144    2    57.5    -9.0    -9.0     8.946    -9.000    -9.000   289.7    -9.0    -9.0
    12    10  2014   145    2    57.5    -9.0    -9.0     8.952    -9.000    -9.000   289.4    -9.0    -9.0
    13    10  2014   146    2    57.5    -9.0    -9.0     8.964    -9.000    -9.000   290.2    -9.0    -9.0
    14    10  2014   147    2    57.4    -9.0    -9.0     8.992    -9.000    -9.000   288.9    -9.0    -9.0
    15    10  2014   148    2    57.7    -9.0    -9.0     9.021    -9.000    -9.000   293.4    -9.0    -9.0
    16    10  2014   149    2    57.9    -9.0    -9.0     9.050    -9.000    -9.000   299.3    -9.0    -9.0
    17    10  2014   150    2    58.0    -9.0    -9.0     9.080    -9.000    -9.000   294.2    -9.0    -9.0
    18    10  2014   151    2    58.0    -9.0    -9.0     9.093    -9.000    -9.000   291.4    -9.0    -9.0
    19    10  2014   152    2    58.0    -9.0    -9.0     9.093    -9.000    -9.000   291.2    -9.0    -9.0
    20    10  2014   153    2    58.0    -9.0    -9.0     9.093    -9.000    -9.000   291.8    -9.0    -9.0
    21    10  2014   154    2    58.0    -9.0    -9.0     9.093    -9.000    -9.000   294.2    -9.0    -9.0
    22    10  2014   155    2    58.0    -9.0    -9.0     9.100    -9.000    -9.000   293.9    -9.0    -9.0
    23    10  2014   156    2    58.1    -9.0    -9.0     9.105    -9.000    -9.000   291.7    -9.0    -9.0
    24    10  2014   157    2    58.1    -9.0    -9.0     9.128    -9.000    -9.000   289.6    -9.0    -9.0
    25    10  2014   158    2    58.1    -9.0    -9.0     9.140    -9.000    -9.000   294.8    -9.0    -9.0
    26    10  2014   159    2    58.1    -9.0    -9.0     9.145    -9.000    -9.000   291.5    -9.0    -9.0
    27    10  2014   160    2    58.1    -9.0    -9.0     9.149    -9.000    -9.000   291.0    -9.0    -9.0
    28    10  2014   161    2    58.1    -9.0    -9.0     9.172    -9.000    -9.000   295.8    -9.0    -9.0
    29    10  2014   162    2    58.2    -9.0    -9.0     9.172    -9.000    -9.000   291.7    -9.0    -9.0
    30    10  2014   163    2    58.2    -9.0    -9.0     9.172    -9.000    -9.000   290.8    -9.0    -9.0
    31    10  2014   164    2    58.2    -9.0    -9.0     9.172    -9.000    -9.000   290.0    -9.0    -9.0
