AquaCrop 7.2 (August 2024) - Output created on (date) : 2024-10-30   at (time) : 10:20:49 AM
Evaluation of simulation results - Statistics

  No field observation file
